      77
 i =        2, E =     -1323.4709245535
 Fe        18.3347658941       -0.0000008822        0.0000012486
 Fe        15.2787113762       -0.0000004378        0.0000002770
 Fe        12.2026621272        0.0000004556       -0.0000020346
 Fe         9.1696162913        0.0000008123       -0.0000034260
 Fe         6.1359434143        0.0000002863       -0.0000001311
 Fe         3.0594397946       -0.0000002068        0.0000014278
 Fe         0.0031855039       -0.0000007960        0.0000015417
  O        18.3284434255       -0.0000019453        2.1321145259
  O        18.3284437669        0.0000006586       -2.1321122296
  O        19.8613177653       -1.2627054211        0.0000070240
  O        19.8613181673        1.2627036301       -0.0000048798
  O        15.2814844559       -0.0000016339        2.1429962903
  O        15.2814859329        0.0000008379       -2.1429959968
  O        16.8182310522       -1.2624375749       -0.0000009156
  O        16.8182319586        1.2624362369        0.0000021549
  O        12.2628252361        0.0000038618        2.1674527980
  O        12.2628272116       -0.0000015800       -2.1674572273
  O        13.7852293109       -1.2582951177       -0.0000015975
  O        13.7852304193        1.2582952487       -0.0000007090
  O         9.1714692284       -0.0000039261        2.2838637109
  O         9.1714673012        0.0000061653       -2.2838706407
  O        10.8223050616       -1.3241601971       -0.0000010838
  O        10.8223055986        1.3241616413       -0.0000057179
  O         6.0740988576       -0.0000251325        2.1674764572
  O         6.0740969423        0.0000251660       -2.1674770991
  O         7.5165789034       -1.3238837059       -0.0000097164
  O         7.5165785281        1.3238847256        0.0000062215
  O         3.0536116127       -0.0000437497        2.1426739232
  O         3.0536110840        0.0000433573       -2.1426711855
  O         4.5530759633       -1.2581804895       -0.0000321310
  O         4.5530756386        1.2581805193        0.0000332158
  O         0.0060639955       -0.0000067243        2.1319564730
  O         0.0060641820        0.0000045742       -2.1319535033
  O         1.5195869940       -1.2624083139       -0.0000120441
  O         1.5195867266        1.2624071948        0.0000145350
  H        18.2595200199       -0.7958939540       -2.6715205675
  H        18.2595165865        0.7958966836       -2.6715179573
  H        18.2595297063       -0.7958986719        2.6715209275
  H        18.2595058915        0.7958924203        2.6715214870
  H        19.8612445264       -2.2220860410       -0.0000029091
  H        19.8612446506        2.2220842503        0.0000051136
  H        15.1006927528       -0.7943888390       -2.6583790471
  H        15.1006924097        0.7943911162       -2.6583779501
  H        15.1007037815       -0.7943944826        2.6583788341
  H        15.1006786401        0.7943861771        2.6583777614
  H        16.8040008111       -2.2216069562       -0.0000025210
  H        16.8040017518        2.2216056218        0.0000043233
  H        12.0431447359       -0.7962986801       -2.6631511717
  H        12.0431428603        0.7962943000       -2.6631521785
  H        12.0431461500       -0.7962933592        2.6631479553
  H        12.0431357549        0.7962999685        2.6631451961
  H        13.7434796712       -2.2159078053       -0.0000008692
  H        13.7434812353        2.2159079604       -0.0000007851
  H         9.1654546525       -0.7982775589       -2.8212312563
  H         9.1654721540        0.7982910435       -2.8212297011
  H         9.1654729379       -0.7982890035        2.8212224268
  H         9.1654523706        0.7982798236        2.8212241947
  H        10.7865468438       -2.2792357135       -0.0000030158
  H        10.7865474819        2.2792371642       -0.0000036994
  H         6.2855698350       -0.7965364082       -2.6662177200
  H         6.2855834464        0.7965958132       -2.6661976491
  H         6.2855837899       -0.7965961597        2.6661970525
  H         6.2855691797        0.7965366504        2.6662178113
  H         7.5523518697       -2.2789624742       -0.0000162983
  H         7.5523511170        2.2789635115        0.0000132398
  H         3.2276089742       -0.7945221019       -2.6600327984
  H         3.2274826388        0.7946534272       -2.6600073483
  H         3.2274841267       -0.7946535767        2.6600101097
  H         3.2276058869        0.7945227159        2.6600352310
  H         4.5946726680       -2.2157971739       -0.0000405987
  H         4.5946719465        2.2157972221        0.0000417695
  H         0.0677369128       -0.7959624699       -2.6721003485
  H         0.0676316963        0.7959804749       -2.6720989363
  H         0.0676383677       -0.7959821968        2.6721017384
  H         0.0677287185        0.7959613690        2.6721027122
  H         1.5336460683       -2.2215764526       -0.0000261576
  H         1.5336453058        2.2215753386        0.0000289097
