      77
 i =       36, E =     -1335.5575930276
 Fe        18.3383575984        0.0000797325       -0.0001161544
 Fe        15.2672611539        0.0051283952        0.0004248368
 Fe        12.1835751464        0.0003615774       -0.0000684084
 Fe         9.1695154698        0.0192821460       -0.0036416718
 Fe         6.1554790816       -0.0000602909       -0.0000031090
 Fe         3.0726233121       -0.0036978105       -0.0000186043
 Fe         0.0008761764       -0.0001461140        0.0001940486
  O        18.3297242351       -0.0330649759        2.1021154218
  O        18.3297039980        0.0333331486       -2.1020706728
  O        19.8609151693       -1.2420541044       -0.0268345294
  O        19.8612490666        1.2419917330        0.0268734182
  O        15.3153046284       -0.0325623090        2.1141655467
  O        15.3153094988        0.0348399596       -2.1131820008
  O        16.8171199744       -1.2339193621       -0.0274565802
  O        16.8185889785        1.2404149996        0.0274669949
  O        12.2828544027        0.0233634840        2.1597292966
  O        12.2832221441       -0.0225407056       -2.1604672466
  O        13.7774310267       -1.2275042788       -0.0239073541
  O        13.7783820088        1.2391723875        0.0239358137
  O         9.1701546329        0.0327085044        2.2174617272
  O         9.1701025023        0.0254162541       -2.2242958718
  O        10.7999662803       -1.2738806669        0.0258047636
  O        10.8092077448        1.2915884168       -0.0305516579
  O         6.0572615588        0.0212542473        2.1598041074
  O         6.0569243745       -0.0209865545       -2.1603365520
  O         7.5398626342       -1.2737242133        0.0254927656
  O         7.5301281656        1.2917213058       -0.0305248297
  O         3.0217493437       -0.0346308224        2.1124635922
  O         3.0219786322        0.0326570580       -2.1127057848
  O         4.5619454653       -1.2376497545       -0.0238135776
  O         4.5609083866        1.2293107011        0.0245692452
  O        -0.0192390316       -0.0331755162        2.1022532954
  O        -0.0191786770        0.0328653613       -2.1022541253
  O         1.5197174963       -1.2382997289       -0.0272976869
  O         1.5206356393        1.2332839412        0.0273608742
  H        18.2437048591       -0.7738084245       -2.6711158992
  H        18.2371046497        0.8518450638       -2.6536487687
  H        18.2389075049       -0.8514053618        2.6542274758
  H        18.2431171204        0.7742937349        2.6707657662
  H        19.8604742503       -2.2303523303       -0.0332997132
  H        19.8606660144        2.2302789141        0.0333022826
  H        15.1333407832       -0.7751799468       -2.6564697067
  H        15.1010658961        0.8458094332       -2.6432984713
  H        15.1051863729       -0.8455731023        2.6428269793
  H        15.1324846093        0.7753948996        2.6603272532
  H        16.8059622260       -2.2222524799       -0.0331646607
  H        16.8093801080        2.2287185652        0.0336241125
  H        12.1095535380       -0.8442716403       -2.6881619531
  H        12.0382197827        0.7796671736       -2.6897700339
  H        12.0453649972       -0.7786361572        2.6928472736
  H        12.1040253876        0.8458142248        2.6844621093
  H        13.7498922326       -2.2149093246       -0.0234174473
  H        13.7486742126        2.2263497357        0.0243154947
  H         9.1695398322       -0.7817053720       -2.7999995652
  H         9.1707795263        0.8452141548       -2.7817832796
  H         9.1701587877       -0.7853378228        2.7773707535
  H         9.1693070798        0.8416044718        2.7906525219
  H        10.7788133267       -2.2598418481        0.0221460447
  H        10.8019022680        2.2778312292       -0.0272837204
  H         6.2286183381       -0.8414909045       -2.6904286416
  H         6.3014433991        0.7824007716       -2.6881017905
  H         6.2929508748       -0.7824405148        2.6911851923
  H         6.2337446832        0.8421046053        2.6876921260
  H         7.5603947597       -2.2596804433        0.0211219269
  H         7.5376742534        2.2779343201       -0.0261578086
  H         3.1955191426       -0.7761921566       -2.6604006729
  H         3.2285597793        0.8449861951       -2.6436419672
  H         3.2251808429       -0.8462691496        2.6455955859
  H         3.1974607358        0.7752138301        2.6579491204
  H         4.5915090759       -2.2248819286       -0.0249906374
  H         4.5889240204        2.2166387793        0.0239725276
  H         0.0464984900       -0.7755443317       -2.6722982679
  H         0.0635746102        0.8502148134       -2.6571267035
  H         0.0639441794       -0.8506719889        2.6568738098
  H         0.0462389098        0.7751060964        2.6725252857
  H         1.5286986389       -2.2266190281       -0.0341343774
  H         1.5310559093        2.2216417926        0.0333575349
