      77
 i =        3, E =     -1335.5306229247
 Fe        18.3399370336        0.0000000516        0.0001611774
 Fe        15.2925466633        0.0000082802       -0.0000255596
 Fe        12.2186911104       -0.0003401933        0.0013479179
 Fe         9.1377662731       -0.0000843524       -0.0002952919
 Fe         6.1235299807        0.0265969087        0.0000677445
 Fe         3.1103433710        0.0005105778       -0.0002842024
 Fe         0.0258847776       -0.0011092401       -0.0218827438
  O        18.3177600963        0.0318300927        2.1145977829
  O        18.3139599253       -0.0321542494       -2.1154985839
  O        19.8579072410       -1.2584756466        0.0186640940
  O        19.8575056580        1.2569428036       -0.0321740906
  O        15.2755372504        0.0326881454        2.1149693285
  O        15.2740373258       -0.0327045280       -2.1145286227
  O        16.8147917186       -1.2620933991        0.0256459356
  O        16.8148313318        1.2619965564       -0.0247853331
  O        12.2409671377        0.0306055853        2.1313785808
  O        12.2406629746       -0.0305281090       -2.1267866474
  O        13.7714160145       -1.2578933206        0.0282023959
  O        13.7716463953        1.2575534624       -0.0269473627
  O         9.2343598763       -0.0305113859        2.1722691097
  O         9.2349431641        0.0302921728       -2.1718621865
  O        10.7323209452       -1.2586895584       -0.0167167060
  O        10.7356164743        1.2583407582        0.0193687461
  O         6.1258433167        0.0294902139        2.2309927012
  O         6.1265523471        0.0386691997       -2.2298671143
  O         7.7489484203       -1.2953862928       -0.0281373253
  O         7.7749498084        1.3255084742        0.0275865392
  O         3.0089312270       -0.0285296504        2.1682109338
  O         3.0139709383        0.0273737580       -2.1721826564
  O         4.4984271272       -1.2954106865       -0.0278798241
  O         4.4690863896        1.3260595617        0.0284288054
  O        -0.0248365123        0.0292919091        2.1145647491
  O        -0.0308170935       -0.0295707289       -2.1647938058
  O         1.5113563079       -1.2573825754       -0.0221143378
  O         1.5063201608        1.2567858558       -0.0242059215
  H        18.4015017199       -0.8491308780       -2.6699101210
  H        18.3865089600        0.7772440546       -2.6830896749
  H        18.3782592231       -0.7776740082        2.6835542589
  H        18.3970425474        0.8490421526        2.6700472240
  H        19.8666131191       -2.2473320408        0.0223427028
  H        19.8681951580        2.2457537386       -0.0344773734
  H        15.1817816990       -0.8506473778       -2.6668694517
  H        15.1869222988        0.7757392991       -2.6813774527
  H        15.1846956746       -0.7756013120        2.6814901772
  H        15.1751488100        0.8506573787        2.6659443609
  H        16.8137090546       -2.2509560838        0.0294390905
  H        16.8138880904        2.2508567312       -0.0302218481
  H        11.9875486799       -0.8409613529       -2.6395613355
  H        12.0614330591        0.7791645447       -2.6712947105
  H        12.0660748264       -0.7797247102        2.6762334256
  H        11.9770232811        0.8397440756        2.6406455356
  H        13.7607479136       -2.2467326765        0.0272661650
  H        13.7603578098        2.2463761132       -0.0264375633
  H         9.0027085347       -0.7751566060       -2.7022985939
  H         9.0188161075        0.8500625550       -2.6870538035
  H         9.0316648852       -0.8504841060        2.6927516193
  H         8.9889462770        0.7743837857        2.6974003370
  H        10.7038951583       -2.2465577364       -0.0110759313
  H        10.7063915242        2.2460265705        0.0126613930
  H         6.1134883155       -0.7795177141       -2.7895936632
  H         6.1096880113        0.8485688776       -2.8017974995
  H         6.1108313750       -0.7784309789        2.8055519888
  H         6.1157695329        0.8494615062        2.7886756278
  H         7.7283527342       -2.2819831212       -0.0288326124
  H         7.7750381972        2.3125257930        0.0315301036
  H         3.2266340438       -0.7766782789       -2.7122144011
  H         3.1935323929        0.8500491814       -2.6960059394
  H         3.1761193346       -0.8512572161        2.6963956637
  H         3.2359591343        0.7747333020        2.7035509428
  H         4.5188855408       -2.2819762748       -0.0309676530
  H         4.4698336094        2.3131599909        0.0293009154
  H         0.1867876406       -0.8423800805       -2.6901961360
  H         0.1487168761        0.7805064208       -2.7084837136
  H         0.1348051281       -0.7804928702        2.6646831588
  H         0.1912062386        0.8418000641        2.6408013360
  H         1.5388839659       -2.2452778104       -0.0181413137
  H         1.5344176975        2.2445348953       -0.0240476286
