      77
 i =       37, E =     -1336.1321763434
 Fe        18.3479694041       -0.0000004552        0.0000010218
 Fe        15.2938175956        0.0000003294        0.0000005812
 Fe        12.2329011056       -0.0000003853        0.0000025037
 Fe         9.1471222655       -0.0000007266        0.0000055595
 Fe         6.1275476659        0.0000003174        0.0000026124
 Fe         3.1061982208       -0.0000004956        0.0000025333
 Fe         0.0205791602        0.0000010319        0.0000016584
  O        18.3576081125        0.0000011320        2.1490243140
  O        18.3576084823        0.0000005913       -2.1490227788
  O        19.8654650013       -1.2899698604       -0.0000005701
  O        19.8654647761        1.2899700328        0.0000025586
  O        15.2719081675        0.0000046869        2.1542097281
  O        15.2719067956       -0.0000053809       -2.1542082091
  O        16.8178318807       -1.2887249568        0.0000049968
  O        16.8178315525        1.2887249872       -0.0000037234
  O        12.2426427841       -0.0000154864        2.1841256453
  O        12.2426389693        0.0000170112       -2.1841210553
  O        13.7714328351       -1.2888446458        0.0000032438
  O        13.7714325199        1.2888444797        0.0000010545
  O         9.2497423539       -0.0000153328        2.2256243391
  O         9.2497418741        0.0000148760       -2.2256145219
  O        10.7392098037       -1.2837804098       -0.0000178626
  O        10.7392094469        1.2837797457        0.0000342056
  O         6.1356628851       -0.0000014301        2.2592568688
  O         6.1356643004        0.0000017208       -2.2592535097
  O         7.7594658263       -1.3390719651        0.0000033219
  O         7.7594662993        1.3390710721        0.0000077738
  O         3.0050492211        0.0000033775        2.2224392573
  O         3.0050492860       -0.0000036189       -2.2224347433
  O         4.4948070235       -1.3385027055        0.0000065577
  O         4.4948069094        1.3385023927       -0.0000013591
  O         0.0011980161        0.0000034306        2.1768737777
  O         0.0011996872       -0.0000056098       -2.1768712592
  O         1.5141231870       -1.2839668440        0.0000060612
  O         1.5141236587        1.2839666611        0.0000008721
  H        18.4446845988       -0.8150449455       -2.7052091325
  H        18.4446603103        0.8150490896       -2.7052084417
  H        18.4446608447       -0.8150471896        2.7052102105
  H        18.4446801363        0.8150469579        2.7052108283
  H        19.8704636141       -2.2783223956        0.0000039348
  H        19.8704645716        2.2783224835       -0.0000012393
  H        15.1062052130       -0.8137091210       -2.6952215616
  H        15.1062071691        0.8136983048       -2.6952228042
  H        15.1062055223       -0.8136991632        2.6952232759
  H        15.1062029671        0.8137081146        2.6952224825
  H        16.8176165547       -2.2772594783        0.0000008338
  H        16.8176163642        2.2772595390       -0.0000000498
  H        11.9301829754       -0.8094351877       -2.6674927535
  H        11.9302286316        0.8094842268       -2.6674962531
  H        11.9302295372       -0.8094819560        2.6674997647
  H        11.9301861031        0.8094370157        2.6674960123
  H        13.7658574140       -2.2772746206       -0.0000034709
  H        13.7658577719        2.2772744555        0.0000061141
  H         8.9504043759       -0.8126303392       -2.7115021894
  H         8.9503933177        0.8126583228       -2.7114974148
  H         8.9503948800       -0.8126584858        2.7115084002
  H         8.9504056786        0.8126304236        2.7115115773
  H        10.7207117760       -2.2716630168       -0.0000153292
  H        10.7207110129        2.2716622847        0.0000247985
  H         6.0952585781       -0.8169848056       -2.8196122600
  H         6.0952510717        0.8169914419       -2.8196075491
  H         6.0952515532       -0.8169911411        2.8196108971
  H         6.0952588617        0.8169853168        2.8196153599
  H         7.7646371235       -2.3259697873        0.0000023538
  H         7.7646382615        2.3259690254        0.0000050243
  H         3.2485426956       -0.8150330405       -2.7331071571
  H         3.2485447610        0.8150264635       -2.7331055459
  H         3.2485451305       -0.8150267313        2.7331097719
  H         3.2485422924        0.8150328065        2.7331117876
  H         4.4879727211       -2.3253019026        0.0000069427
  H         4.4879725812        2.3253015518       -0.0000040193
  H         0.2653610766       -0.8117413417       -2.6824959765
  H         0.2653633079        0.8117280818       -2.6824981723
  H         0.2653637756       -0.8117298841        2.6825000294
  H         0.2653580419        0.8117394507        2.6824989118
  H         1.5316803012       -2.2718306189        0.0000042472
  H         1.5316805350        2.2718304198        0.0000000009
