      77
 i =        2, E =     -1323.4709170047
 Fe        18.3406872470        0.0000002192        0.0000008037
 Fe        15.2871530099        0.0000001154        0.0000008719
 Fe        12.2312783807        0.0000002980        0.0000031864
 Fe         9.1559223186       -0.0000000777        0.0000049026
 Fe         6.1240257242       -0.0000002886        0.0000036239
 Fe         3.0895813078       -0.0000003490        0.0000017683
 Fe         0.0123334154       -0.0000003005        0.0000015831
  O        18.3381827993        0.0000023068        2.1317328817
  O        18.3381832966       -0.0000015381       -2.1317312676
  O        19.8569235971       -1.2623448640        0.0000003345
  O        19.8569242619        1.2623448113        0.0000021616
  O        15.2756779836        0.0000051571        2.1323375337
  O        15.2756768701       -0.0000051101       -2.1323356211
  O        16.8132830959       -1.2626778405        0.0000078403
  O        16.8132832770        1.2626782351       -0.0000064097
  O        12.2293882822       -0.0000171878        2.1434665024
  O        12.2293859910        0.0000183590       -2.1434600291
  O        13.7703471946       -1.2624445030        0.0000022593
  O        13.7703473732        1.2624450073        0.0000017931
  O         9.2135182015       -0.0000072582        2.1672668577
  O         9.2135174810        0.0000066641       -2.1672570672
  O        10.7380079579       -1.2584536607       -0.0000097723
  O        10.7380076499        1.2584539073        0.0000185587
  O         6.1317603797       -0.0000011116        2.2837647619
  O         6.1317632295        0.0000009490       -2.2837578819
  O         7.7760801049       -1.3247075693        0.0000010720
  O         7.7760799437        1.3247071784        0.0000085793
  O         3.0253954781        0.0000032124        2.1674442696
  O         3.0253964125       -0.0000043065       -2.1674407884
  O         4.4706325554       -1.3235447161        0.0000034210
  O         4.4706325801        1.3235440269        0.0000008835
  O         0.0013738786        0.0000024828        2.1422641399
  O         0.0013745124       -0.0000038924       -2.1422610934
  O         1.5062216242       -1.2579597845        0.0000033584
  O         1.5062218623        1.2579590346       -0.0000000858
  H        18.3885119658       -0.7960638738       -2.6728681290
  H        18.3884720973        0.7960624001       -2.6728694652
  H        18.3884783097       -0.7960612142        2.6728710638
  H        18.3885043144        0.7960648990        2.6728700168
  H        19.8707714009       -2.2215122097        0.0000025937
  H        19.8707723668        2.2215121564       -0.0000001276
  H        15.1957609899       -0.7957543009       -2.6704961002
  H        15.1957900897        0.7957431967       -2.6705013716
  H        15.1957945072       -0.7957435629        2.6705031613
  H        15.1957585543        0.7957537692        2.6704982893
  H        16.8130009725       -2.2220611351        0.0000035197
  H        16.8130008855        2.2220615284       -0.0000025032
  H        12.0384889062       -0.7940339796       -2.6558456563
  H        12.0385842557        0.7940987762       -2.6558380176
  H        12.0385870199       -0.7940974934        2.6558448480
  H        12.0384921525        0.7940351371        2.6558524998
  H        13.7558053324       -2.2216154511       -0.0000060103
  H        13.7558057220        2.2216159604        0.0000094538
  H         8.9818168389       -0.7958274661       -2.6583281313
  H         8.9818288859        0.7958463415       -2.6583250549
  H         8.9818314825       -0.7958471500        2.6583353815
  H         8.9818195768        0.7958267607        2.6583390560
  H        10.6959122860       -2.2160518933       -0.0000136199
  H        10.6959115821        2.2160521245        0.0000220941
  H         6.1077180938       -0.7982600417       -2.8206510909
  H         6.1077135752        0.7982632431       -2.8206489514
  H         6.1077143052       -0.7982630405        2.8206565219
  H         6.1077176063        0.7982602132        2.8206575817
  H         7.7403087111       -2.2797829018        0.0000007645
  H         7.7403085390        2.2797825060        0.0000094143
  H         3.2237948426       -0.7970170748       -2.6706876772
  H         3.2237889764        0.7970075530       -2.6706914033
  H         3.2237918868       -0.7970080139        2.6706943555
  H         3.2237926220        0.7970164030        2.6706910143
  H         4.5064009117       -2.2786373344        0.0000040029
  H         4.5064008119        2.2786366507       -0.0000000071
  H         0.1641492902       -0.7948915068       -2.6626564900
  H         0.1641340748        0.7948839522       -2.6626609047
  H         0.1641393158       -0.7948845554        2.6626633517
  H         0.1641430727        0.7948907382        2.6626603179
  H         1.5476968249       -2.2155771201        0.0000056138
  H         1.5476970556        2.2155763686       -0.0000020764
