      77
 i =       34, E =     -1335.6590122007
 Fe        18.3379705116        0.0000093684        0.0000568858
 Fe        15.2674810667       -0.0002179488        0.0039807499
 Fe        12.1843388872       -0.0000147855        0.0001725374
 Fe         9.1695116398        0.0177054797        0.0007476798
 Fe         6.1548544658       -0.0000179770       -0.0000209145
 Fe         3.0697803159       -0.0002408551       -0.0014825522
 Fe         0.0006364031        0.0000703292       -0.0002201514
  O        18.3247113237       -0.0322466150        2.0506719861
  O        18.3189014730        0.0320707227       -2.0528954364
  O        19.8604577591       -1.2034142291       -0.0244070428
  O        19.8604621394        1.2033099376        0.0231605024
  O        15.3134313898       -0.0312739432        2.0929480547
  O        15.2815681266        0.0316811766       -2.0839806831
  O        16.8146515498       -1.1994158437       -0.0235122570
  O        16.8148906189        1.1992383174        0.0227070155
  O        12.2771240512        0.0267540827        2.1074159204
  O        12.2765881755       -0.0282054502       -2.1050125921
  O        13.7768189005       -1.1976320528        0.0065676134
  O        13.7787208255        1.1973530061        0.0143504741
  O         9.1698572345        0.0348523332        2.1647502567
  O         9.1703179725        0.0254163391       -2.1647596288
  O        10.8013332676       -1.2452695318        0.0266187299
  O        10.8168325717        1.2592080915       -0.0257150833
  O         6.0605740584        0.0269541563        2.1052084093
  O         6.0616777804       -0.0283454595       -2.1056228997
  O         7.5375901074       -1.2453955406        0.0268339494
  O         7.5219285408        1.2593219557       -0.0253575522
  O         3.0218360564       -0.0305815986        2.0856805492
  O         3.0215576328        0.0301675231       -2.0887714824
  O         4.5605685343       -1.1970893786       -0.0047591208
  O         4.5589004163        1.1968065517       -0.0001390817
  O        -0.0200414954       -0.0321411434        2.0517443900
  O        -0.0209644186        0.0320284824       -2.0529281303
  O         1.5210874706       -1.1989901901       -0.0234998374
  O         1.5210041017        1.1987441449        0.0221056392
  H        18.2508438445       -0.7737294555       -2.6268091258
  H        18.2373900732        0.8487661245       -2.6094444772
  H        18.2332265991       -0.8489097390        2.6056451771
  H        18.2460022061        0.7733979059        2.6233715065
  H        19.8596807297       -2.1910716871       -0.0305993843
  H        19.8597108714        2.1909809670        0.0289279816
  H        15.1232778996       -0.7737456977       -2.6408242768
  H        15.0730477553        0.8460994301       -2.6104980928
  H        15.0962031991       -0.8447352082        2.6179419073
  H        15.1384833683        0.7747221228        2.6444971276
  H        16.8012428488       -2.1870675906       -0.0340591697
  H        16.8013046403        2.1869496937        0.0280161499
  H        12.1073465684       -0.8525702875       -2.6299219312
  H        12.0387342556        0.7702741288       -2.6427006768
  H        12.0501475293       -0.7733776162        2.6474867412
  H        12.1003292980        0.8500559500        2.6313248521
  H        13.7420637131       -2.1840694255        0.0047829879
  H        13.7436101037        2.1837138412        0.0182718643
  H         9.1681247622       -0.7795285720       -2.7431798697
  H         9.1665021155        0.8456913616       -2.7212196978
  H         9.1677115831       -0.7803451313        2.7285904975
  H         9.1694640258        0.8449002946        2.7360090437
  H        10.7700766790       -2.2295985147        0.0312148087
  H        10.7956305351        2.2439655731       -0.0279377543
  H         6.2271169546       -0.8522537528       -2.6323477227
  H         6.2901951942        0.7710955878       -2.6458147868
  H         6.2806100964       -0.7739150963        2.6469733170
  H         6.2352764886        0.8499245462        2.6302660515
  H         7.5688901821       -2.2297179059        0.0297280576
  H         7.5431694664        2.2440577912       -0.0290004434
  H         3.1772618258       -0.7771611786       -2.6440306124
  H         3.2338276935        0.8423493389       -2.6176036858
  H         3.2282683095       -0.8431610383        2.6162263098
  H         3.1791575583        0.7765301342        2.6408344845
  H         4.5951586919       -2.1836650710       -0.0056156219
  H         4.5937663967        2.1833088431        0.0015338747
  H         0.0385287924       -0.7743123823       -2.6271561904
  H         0.0617732775        0.8480006511       -2.6104762290
  H         0.0565880854       -0.8484792016        2.6095220337
  H         0.0359263978        0.7740126831        2.6264806384
  H         1.5334648503       -2.1866877919       -0.0302963007
  H         1.5337105532        2.1864079725        0.0293825946
