      77
 i =       17, E =     -1322.2242972528
 Fe        18.3349492144        0.0000007576        0.0000088830
 Fe        15.2790010162        0.0000004518        0.0000110067
 Fe        12.2234994452        0.0000002531        0.0000092548
 Fe         9.1689006748        0.0000000025       -0.0000155245
 Fe         6.1144610762        0.0000004777       -0.0000137930
 Fe         3.0599564723       -0.0000003633        0.0000083962
 Fe         0.0054411568       -0.0000009552        0.0000089075
  O        18.3357102616        0.0000063341        2.1492275942
  O        18.3357068954       -0.0000039473       -2.1492102802
  O        19.8627675229       -1.2603451555       -0.0000005370
  O        19.8627688169        1.2603450192       -0.0000046852
  O        15.2775569801        0.0000056940        2.1492458436
  O        15.2775553627       -0.0000051111       -2.1492226312
  O        16.8069625729       -1.2600452152        0.0000058244
  O        16.8069622875        1.2600462873       -0.0000093754
  O        12.2220377233       -0.0000166497        2.1498754757
  O        12.2220122689        0.0000176436       -2.1498473640
  O        13.7511618168       -1.2603484147       -0.0000016148
  O        13.7511615062        1.2603488648        0.0000016921
  O         9.1699252435       -0.0000131402        2.1509802399
  O         9.1699271574        0.0000128287       -2.1509928769
  O        10.6963684520       -1.2602194807       -0.0000053225
  O        10.6963681119        1.2602200795        0.0000209162
  O         6.1136965806       -0.0000052163        2.1502777432
  O         6.1136841349        0.0000024663       -2.1502650548
  O         7.6418218188       -1.2600441765        0.0000129579
  O         7.6418220281        1.2600446383        0.0000248826
  O         3.0589471266        0.0000024472        2.1507110765
  O         3.0589694976       -0.0000031056       -2.1506811206
  O         4.5869917631       -1.2600634656        0.0000071842
  O         4.5869908895        1.2600636699        0.0000082096
  O         0.0062342509        0.0000005281        2.1498097408
  O         0.0062399863       -0.0000026427       -2.1497865176
  O         1.5325777780       -1.2602449535        0.0000003244
  O         1.5325774336        1.2602437503       -0.0000015943
  H        18.3360500787       -0.7952338376       -2.6987554483
  H        18.3360499607        0.7952232609       -2.6987591075
  H        18.3360536554       -0.7952387919        2.6987490921
  H        18.3360505603        0.7952538858        2.6987458369
  H        19.8632672514       -2.2220751546        0.0000049301
  H        19.8632702350        2.2220750259        0.0000012057
  H        15.2763347320       -0.7952399684       -2.6987724892
  H        15.2763936753        0.7952253445       -2.6987789495
  H        15.2763961852       -0.7952448926        2.6987710692
  H        15.2763352500        0.7952601934        2.6987654228
  H        16.8070079802       -2.2217489361        0.0000097073
  H        16.8070065390        2.2217499969       -0.0000040147
  H        12.2210690973       -0.7950067851       -2.6998838900
  H        12.2211573807        0.7950528643       -2.6998685865
  H        12.2211492546       -0.7950653130        2.6998540906
  H        12.2210642182        0.7950213957        2.6998691442
  H        13.7507225122       -2.2220764815       -0.0000003651
  H        13.7507226041        2.2220768951        0.0000125189
  H         9.1703580091       -0.7950172732       -2.7008053256
  H         9.1704025565        0.7950488993       -2.7007969464
  H         9.1703973393       -0.7950332664        2.7008134023
  H         9.1703581119        0.7950001211        2.7008231009
  H        10.6960973729       -2.2219712596       -0.0000121166
  H        10.6960971865        2.2219718770        0.0000255637
  H         6.1131631428       -0.7950349447       -2.7001547349
  H         6.1131785749        0.7950406974       -2.7001535810
  H         6.1131735140       -0.7950524198        2.7001520496
  H         6.1131653541        0.7950415360        2.7001522358
  H         7.6417847681       -2.2217153851        0.0000018518
  H         7.6417856211        2.2217157905        0.0000124124
  H         3.0577139059       -0.7949049178       -2.7009137765
  H         3.0577140166        0.7948963604       -2.7009172338
  H         3.0577204248       -0.7949109982        2.7009020193
  H         3.0577227988        0.7949177658        2.7008993067
  H         4.5870486061       -2.2217371006        0.0000112175
  H         4.5870472983        2.2217372598        0.0000061103
  H         0.0067910113       -0.7950207345       -2.6997447095
  H         0.0067797557        0.7950151403       -2.6997450956
  H         0.0067852124       -0.7950338489        2.6997335506
  H         0.0067945950        0.7950358489        2.6997322355
  H         1.5328878225       -2.2219895563        0.0000064996
  H         1.5328864892        2.2219883724        0.0000009069
