      77
 i =       15, E =     -1322.6565717424
 Fe        18.3381051775        0.0000001206        0.0000513913
 Fe        15.2788339673        0.0000025640        0.0000616585
 Fe        12.2187034052       -0.0000035546        0.0001289391
 Fe         9.1425702931       -0.0000043740       -0.0000791602
 Fe         6.1165399592        0.0000038798        0.0000173332
 Fe         3.0901327833        0.0000036033        0.0001589304
 Fe         0.0135586500       -0.0000025289       -0.0000293431
  O        18.3337444646        0.0000057221        2.1430177384
  O        18.3336898099       -0.0000042444       -2.1429808737
  O        19.8527741945       -1.2611201835       -0.0000564669
  O        19.8527747579        1.2611180389       -0.0000882251
  O        15.2785917339        0.0000150493        2.1430028456
  O        15.2785347774       -0.0000109146       -2.1429389582
  O        16.8083361000       -1.2609796438       -0.0000177484
  O        16.8083369032        1.2609813787       -0.0000505912
  O        12.2365690268        0.0000176932        2.1510912284
  O        12.2365443047       -0.0000255933       -2.1508914120
  O        13.7641033275       -1.2611866960        0.0000280645
  O        13.7640993252        1.2611838155       -0.0000112895
  O         9.2120046072       -0.0001629575        2.1721346180
  O         9.2122055494        0.0001613911       -2.1723546327
  O        10.7303467967       -1.2580591060       -0.0000020350
  O        10.7303493767        1.2580571473       -0.0000389904
  O         6.1173345531        0.0003336551        2.2932584935
  O         6.1171504136       -0.0003185243       -2.2932208224
  O         7.7675475465       -1.3252601921       -0.0008247734
  O         7.7675628886        1.3252576281        0.0003671537
  O         3.0184945402       -0.0001348914        2.1724381464
  O         3.0187093957        0.0001344540       -2.1721259908
  O         4.4653951620       -1.3250182510       -0.0003879675
  O         4.4654018301        1.3250287305        0.0007974812
  O        -0.0081329074        0.0000298802        2.1508793884
  O        -0.0081530048       -0.0000324631       -2.1509916491
  O         1.5020183687       -1.2579361235       -0.0000082829
  O         1.5020125349        1.2579305812       -0.0000707232
  H        18.3781430216       -0.7943869872       -2.6892035882
  H        18.3781326336        0.7943782649       -2.6892045673
  H        18.3782086268       -0.7944030824        2.6891949122
  H        18.3782585464        0.7944184607        2.6891858065
  H        19.8679715221       -2.2210648533       -0.0000187652
  H        19.8679736898        2.2210628024       -0.0000278935
  H        15.2271997583       -0.7943483742       -2.6886046902
  H        15.2273263877        0.7943219567       -2.6886232297
  H        15.2274254885       -0.7943566161        2.6886276384
  H        15.2272808926        0.7943901980        2.6886098430
  H        16.8083739128       -2.2212038405        0.0000000344
  H        16.8083779893        2.2212056034       -0.0000134730
  H        12.0988847736       -0.7936071365       -2.6821875159
  H        12.0992397205        0.7936145146       -2.6821883606
  H        12.0993555781       -0.7936696521        2.6823398838
  H        12.0989733068        0.7936457576        2.6823326976
  H        13.7489910793       -2.2211417159        0.0000109468
  H        13.7489796921        2.2211384903        0.0000116594
  H         9.0375861326       -0.7950907954       -2.6884720614
  H         9.0387570170        0.7954353548       -2.6888328452
  H         9.0384840905       -0.7954931775        2.6884922163
  H         9.0373148401        0.7951300486        2.6881549683
  H        10.6875018586       -2.2162695283       -0.0000290586
  H        10.6875188903        2.2162690329        0.0002743626
  H         6.1129740060       -0.7960022359       -2.8359010846
  H         6.1130138225        0.7956086041       -2.8355464658
  H         6.1129290004       -0.7956004459        2.8355716994
  H         6.1129118209        0.7960300592        2.8359181486
  H         7.7309524769       -2.2808225333       -0.0001017442
  H         7.7309430333        2.2808207869       -0.0006385837
  H         3.1864837405       -0.7953029050       -2.6902479256
  H         3.1854943336        0.7955829580       -2.6905542571
  H         3.1851801046       -0.7956037156        2.6908708085
  H         3.1862540178        0.7953193518        2.6905425075
  H         4.5022883002       -2.2805772650        0.0006788381
  H         4.5022671335        2.2805872335        0.0000908345
  H         0.1228292898       -0.7937586933       -2.6837659194
  H         0.1226962238        0.7937167925       -2.6837605602
  H         0.1227621071       -0.7937405269        2.6835945021
  H         0.1229910853        0.7937670772        2.6835918986
  H         1.5449801730       -2.2161391080       -0.0002566268
  H         1.5449863486        2.2161321304        0.0000083719
