     216
 i =       21, E =     -5074.0323632033
 Bi         2.5892879171        1.2733465487       10.2349646176
 Bi         2.5552404793        6.3667327551       10.2349646638
 Bi         2.5211930769       11.4601192917       10.2349647176
 Bi         7.7848878139        1.2733465633       10.2349646515
 Bi         7.7508404323        6.3667327725       10.2349647351
 Bi         7.7167929516       11.4601192517       10.2349647605
 Bi        12.9804878521        1.2733464853       10.2349646309
 Bi        12.9464403682        6.3667327341       10.2349645773
 Bi        12.9123929678       11.4601192924       10.2349646498
 Bi         2.5722642591        3.8200394799        1.4695385203
 Bi         2.5382168578        8.9134258972        1.4695385114
 Bi         2.5041695046       14.0068122936        1.4695386307
 Bi         7.7678642391        3.8200394800        1.4695385025
 Bi         7.7338168030        8.9134259286        1.4695385054
 Bi         7.6997694347       14.0068123083        1.4695385683
 Bi        12.9634641559        3.8200395017        1.4695385588
 Bi        12.9294168080        8.9134259064        1.4695385360
 Bi        12.8953692808       14.0068122425        1.4695386780
 Bi        -0.0085113858        1.2733472590        7.3217858921
 Bi        -0.0425588120        6.3667335040        7.3217859296
 Bi        -0.0766062111       11.4601199551        7.3217859117
 Bi         5.1870885244        1.2733472699        7.3217859799
 Bi         5.1530411074        6.3667335088        7.3217860135
 Bi         5.1189936437       11.4601199010        7.3217860232
 Bi        10.3826883606        1.2733472713        7.3217860753
 Bi        10.3486408700        6.3667335086        7.3217860313
 Bi        10.3145934402       11.4601198500        7.3217860674
 Bi        -0.0255356555        3.8200398692        4.3827169214
 Bi        -0.0595830783        8.9134262153        4.3827168912
 Bi        -0.0936304863       14.0068125754        4.3827168396
 Bi         5.1700642308        3.8200398448        4.3827168177
 Bi         5.1360167901        8.9134262400        4.3827168066
 Bi         5.1019694662       14.0068125422        4.3827168524
 Bi        10.3656640355        3.8200398143        4.3827168609
 Bi        10.3316166568        8.9134262179        4.3827167904
 Bi        10.2975692038       14.0068125567        4.3827168965
  O         3.8906724503        1.9862587349        0.5232396451
  O         3.8566249936        7.0796450159        0.5232396386
  O         3.8225775465       12.1730311980        0.5232396653
  O         9.0862718988        1.9862586940        0.5232397499
  O         9.0522243877        7.0796449714        0.5232397758
  O         9.0181769383       12.1730311046        0.5232397583
  O        14.2818721816        1.9862588069        0.5232395983
  O        14.2478246723        7.0796450503        0.5232396232
  O        14.2137772545       12.1730312151        0.5232396298
  O         3.3054281938        2.5466904059        3.4480127709
  O         3.2713807684        7.6400766510        3.4480127275
  O         3.2373334460       12.7334629455        3.4480126986
  O         8.5010276910        2.5466904894        3.4480127511
  O         8.4669802636        7.6400767332        3.4480127084
  O         8.4329328882       12.7334630189        3.4480127029
  O        13.6966282541        2.5466904038        3.4480126934
  O        13.6625807384        7.6400766415        3.4480126794
  O        13.6285334049       12.7334629303        3.4480126445
  O         1.2758500370        4.5329581549        6.3754866245
  O         1.2418027244        9.6263447945        6.3754866365
  O         1.2077552975       14.7197311575        6.3754866261
  O         6.4714502611        4.5329582549        6.3754864599
  O         6.4374029563        9.6263449151        6.3754864765
  O         6.4033555381       14.7197312759        6.3754864746
  O        11.6670502271        4.5329582095        6.3754865249
  O        11.6330029778        9.6263448578        6.3754865433
  O        11.5989554609       14.7197312131        6.3754865330
  O         0.7246513168       -0.0000006355        9.3002601201
  O         0.6906039681        5.0933856046        9.3002600729
  O         0.6565565008       10.1867721757        9.3002601826
  O         5.9202517094       -0.0000007515        9.3002601184
  O         5.8862043373        5.0933854994        9.3002600912
  O         5.8521568062       10.1867720243        9.3002601774
  O        11.1158513832       -0.0000007118        9.3002601370
  O        11.0818040467        5.0933855161        9.3002600973
  O        11.0477566221       10.1867720748        9.3002601850
  O         1.7710053753       15.2801618087        3.4480124555
  O         1.8391002616        5.0933889525        3.4480124827
  O         1.8050527579       10.1867755957        3.4480124203
  O         6.9666058078       15.2801616832        3.4480125045
  O         7.0347006267        5.0933888241        3.4480125174
  O         7.0006531507       10.1867754677        3.4480124496
  O        12.1622053150       15.2801617384        3.4480124971
  O        12.2303001136        5.0933888691        3.4480124924
  O        12.1962526883       10.1867755390        3.4480124450
  O         0.7076270813        2.5466925176        2.4042405770
  O         0.6735796449        7.6400787044        2.4042405997
  O         0.6395322907       12.7334651136        2.4042406334
  O         5.9032274309        2.5466923905        2.4042405907
  O         5.8691800178        7.6400785882        2.4042406141
  O         5.8351326461       12.7334649714        2.4042406480
  O        11.0988273112        2.5466924192        2.4042405988
  O        11.0647798960        7.6400786093        2.4042406176
  O        11.0307324331       12.7334649998        2.4042406418
  O         4.4539244073        2.5466942614        9.3002598012
  O         4.4198769968        7.6400806011        9.3002598307
  O         4.3858296795       12.7334668013        9.3002598954
  O         9.6495241089        2.5466942775        9.3002597401
  O         9.6154767942        7.6400806117        9.3002597905
  O         9.5814292999       12.7334667930        9.3002598346
  O        14.8451246118        2.5466941602        9.3002597925
  O        14.8110772532        7.6400804955        9.3002598180
  O        14.7770298297       12.7334667222        9.3002598593
  O         1.2708792775        3.1071273228       11.1812610486
  O         1.2368317258        8.2005134483       11.1812610304
  O         1.2027843403       13.2938998941       11.1812610347
  O         6.4664795137        3.1071274949       11.1812608972
  O         6.4324319530        8.2005136113       11.1812608674
  O         6.3983846078       13.2939000775       11.1812608857
  O        11.6620789371        3.1071273322       11.1812610048
  O        11.6280313994        8.2005134920       11.1812609885
  O        11.5939839901       13.2938999500       11.1812609566
  O         1.8561247998        2.5466960074        8.2564881326
  O         1.8220774346        7.6400823404        8.2564880912
  O         1.7880300311       12.7334686357        8.2564880708
  O         7.0517252119        2.5466958810        8.2564881079
  O         7.0176778672        7.6400822230        8.2564880742
  O         6.9836304384       12.7334684857        8.2564880322
  O        12.2473248046        2.5466959378        8.2564880915
  O        12.2132774704        7.6400822692        8.2564880417
  O        12.1792299256       12.7334685462        8.2564880269
  O         3.8857021242        0.5604276716        5.3290147724
  O         3.8516546756        5.6538139363        5.3290147682
  O         3.8176073195       10.7472005865        5.3290147584
  O         9.0813020926        0.5604276691        5.3290148248
  O         9.0472546154        5.6538139027        5.3290148092
  O         9.0132072880       10.7472005378        5.3290147964
  O        14.2769023853        0.5604277902        5.3290146907
  O        14.2428548733        5.6538140444        5.3290146700
  O        14.2088075766       10.7472007019        5.3290146751
  O         4.3688061847       15.2801594844        2.4042403279
  O         4.4369010318        5.0933866118        2.4042402538
  O         4.4028535497       10.1867731933        2.4042403314
  O         9.5644059112       15.2801595087        2.4042403752
  O         9.6325007255        5.0933866246        2.4042403340
  O         9.5984533027       10.1867731826        2.4042403779
  O        14.7600063329       15.2801594034        2.4042403339
  O        14.8281012190        5.0933865359        2.4042402999
  O        14.7940538064       10.1867731128        2.4042403460
  O         3.8736490249        4.5329516481       11.1812610534
  O         3.8396016574        9.6263382817       11.1812610180
  O         3.8055542861       14.7197245977       11.1812609956
  O         9.0692483841        4.5329515731       11.1812609686
  O         9.0352010393        9.6263381998       11.1812609144
  O         9.0011536314       14.7197245207       11.1812609208
  O        14.2648487590        4.5329517084       11.1812610765
  O        14.2308013988        9.6263383140       11.1812610227
  O        14.1967540057       14.7197246258       11.1812610451
  O         3.3224517281       -0.0000021051        8.2564882781
  O         3.2884043617        5.0933841723        8.2564883415
  O         3.2543568299       10.1867707682        8.2564882618
  O         8.5180511222       -0.0000020024        8.2564882596
  O         8.4840037421        5.0933842780        8.2564883196
  O         8.4499562439       10.1867708457        8.2564882651
  O        13.7136515921       -0.0000021302        8.2564883190
  O        13.6796042577        5.0933841638        8.2564883894
  O        13.6455568213       10.1867707699        8.2564883181
  O         1.2928731541        1.9862656168        5.3290144326
  O         1.2588256820        7.0796518476        5.3290144301
  O         1.2247782771       12.1730381377        5.3290144385
  O         6.4884734465        1.9862657710        5.3290145814
  O         6.4544259915        7.0796520090        5.3290145864
  O         6.4203785628       12.1730382518        5.3290146104
  O        11.6840734476        1.9862657200        5.3290145187
  O        11.6500259036        7.0796519258        5.3290145262
  O        11.6159785040       12.1730382144        5.3290145509
  O         3.8686791148        3.1071218023        6.3754866936
  O         3.8346316244        8.2005080011        6.3754867507
  O         3.8005842140       13.2938942880        6.3754867308
  O         9.0642790774        3.1071217852        6.3754866534
  O         9.0302315974        8.2005079944        6.3754867095
  O         8.9961841542       13.2938942526        6.3754866870
  O        14.2598794499        3.1071219671        6.3754867584
  O        14.2258319762        8.2005081631        6.3754868233
  O        14.1917844682       13.2938944134        6.3754868030
  O         1.2879040002        0.5604342730        0.5232396154
  O         1.2538565356        5.6538204647        0.5232395946
  O         1.2198091856       10.7472072329        0.5232395957
  O         6.4835042661        0.5604344503        0.5232397640
  O         6.4494568160        5.6538206359        0.5232397512
  O         6.4154094144       10.7472073941        0.5232397663
  O        11.6791037050        0.5604343030        0.5232396614
  O        11.6450561714        5.6538204806        0.5232396310
  O        11.6110088531       10.7472072700        0.5232396317
  V        -0.0085118288        1.2733464858        1.4498588124
  V        -0.0425592651        6.3667326687        1.4498588090
  V        -0.0766066525       11.4601191687        1.4498588378
  V         5.1870881609        1.2733464582        1.4498588027
  V         5.1530407348        6.3667326202        1.4498588160
  V         5.1189933045       11.4601191111        1.4498588712
  V        10.3826878312        1.2733465387        1.4498587940
  V        10.3486403628        6.3667326980        1.4498588249
  V        10.3145929532       11.4601191625        1.4498588239
  V         2.5722646454        3.8200402222        7.3021019293
  V         2.5382172362        8.9134266188        7.3021019452
  V         2.5041697952       14.0068129366        7.3021018742
  V_ex         7.7678646544        3.8200401917        7.3021018936
  V         7.7338172497        8.9134265921        7.3021019052
  V         7.6997698030       14.0068128960        7.3021018610
  V        12.9634647033        3.8200401522        7.3021018794
  V        12.9294173555        8.9134265771        7.3021019172
  V        12.8953698075       14.0068128563        7.3021018462
  V        -0.0255356618        3.8200397951       10.2546421680
  V        -0.0595830592        8.9134261980       10.2546421612
  V        -0.0936305062       14.0068125218       10.2546421616
  V         5.1700643101        3.8200397601       10.2546421685
  V         5.1360168748        8.9134261329       10.2546421796
  V         5.1019694767       14.0068124878       10.2546421748
  V        10.3656639275        3.8200398013       10.2546422300
  V        10.3316165352        8.9134262222       10.2546422281
  V        10.2975690345       14.0068125342       10.2546421921
  V         2.5892877564        1.2733465548        4.4023989975
  V         2.5552403188        6.3667327678        4.4023989627
  V         2.5211929076       11.4601192345        4.4023989855
  V         7.7848878007        1.2733465438        4.4023990030
  V         7.7508403502        6.3667327500        4.4023989529
  V         7.7167929473       11.4601191925        4.4023990091
  V        12.9804878325        1.2733465210        4.4023989574
  V        12.9464403265        6.3667326970        4.4023989268
  V        12.9123929516       11.4601191707        4.4023990061
