     270
 i =       17, E =    -15928.0901121208
 Fe         0.0324987906        2.9286187571       13.7431422570
 Fe         2.4836520245        4.3442829702        4.8984783561
 Fe         2.4865410401        1.5115591752        9.3194418979
 Fe         2.4863651064        4.3465281474        2.1161091274
 Fe         2.4865588288        1.5115660462        6.5369978099
 Fe         0.0331023312        2.9281323406       10.9576591974
 Fe         0.0317232132        2.9278799570        4.3268874955
 Fe         2.4854882101        4.3502506141        8.7428680558
 Fe         2.4865948670        1.5115418910       13.1698884264
 Fe         2.4865842540        1.5115374669        2.6870787713
 Fe         0.0314963061        2.9290870109        7.1086790537
 Fe         2.4864603621        4.3479128032       11.5298028936
 Fe         4.9408673236        2.9283045153       13.7431320134
 Fe         7.3949325504        4.3452642371        4.9007169563
 Fe         7.3955596687        1.5088112821        9.3178043201
 Fe         7.3953880830        4.3443656695        2.1161345470
 Fe         7.3950188940        1.5049248199        6.5383358899
 Fe         4.9401557076        2.9280180013       10.9576451960
 Fe         4.9405979919        2.9293348413        4.3268819088
 Fe         7.3946293608        4.3440323818        8.7469842163
 Fe         7.3957149129        1.5102241484       13.1706969983
 Fe         7.3953248559        1.5085430082        2.6904666871
 Fe         4.9417308004        2.9289371540        7.1086852290
 Fe         7.3945380526        4.3450261317       11.5310410475
 Fe         9.8488789209        2.9277723118       13.7439358304
 Fe        12.3031431456        4.3453742874        4.9007219535
 Fe        12.3035006463        1.5106070576        9.3190870485
 Fe        12.3037831638        4.3462735101        2.1161305099
 Fe        12.3030872932        1.5037621926        6.5355507021
 Fe         9.8481203576        2.9277062102       10.9593237992
 Fe         9.8489299966        2.9236596000        4.3274048236
 Fe        12.3043537643        4.3457468895        8.7469839114
 Fe        12.3025487096        1.5106127160       13.1699690431
 Fe        12.3035830151        1.5130853055        2.6871007147
 Fe         9.8501819299        2.9279147670        7.1085006423
 Fe        12.3036050708        4.3451967234       11.5310405577
 Fe        -2.4210321964        7.1793286637       13.7439415788
 Fe         0.0375960616        8.6054582694        4.9072743186
 Fe         0.0343828614        5.7640834067        9.3177837389
 Fe         0.0326422746        8.5968344876        2.1193548347
 Fe         0.0380281001        5.7656996581        6.5383185583
 Fe        -2.4206375721        7.1786948404       10.9593404589
 Fe        -2.4175720662        7.1813870004        4.3274184229
 Fe         0.0252828037        8.5960290814        8.7506664078
 Fe         0.0331871557        5.7635844951       13.1706956355
 Fe         0.0348519927        5.7641660225        2.6904819053
 Fe        -2.4219242969        7.1804019982        7.1084816274
 Fe         0.0355240311        8.5977537521       11.5291954446
 Fe         2.4866276487        7.1800053458       13.7434365534
 Fe         4.9299101391        8.5957987783        4.9073249552
 Fe         4.9397673935        5.7624541158        9.3191311195
 Fe         4.9399196423        8.5957237600        2.1194113686
 Fe         4.9340041045        5.7661139242        6.5355502590
 Fe         2.4862838616        7.1863196209       10.9534820023
 Fe         2.4931811910        7.1817870637        4.3327934853
 Fe         4.9438879841        8.5900175350        8.7505407765
 Fe         4.9402474392        5.7632051446       13.1699751980
 Fe         4.9418167528        5.7611294744        2.6871101126
 Fe         2.4894565074        7.2060428384        7.1063252645
 Fe         4.9377473214        8.5978479719       11.5291729976
 Fe         7.3943444190        7.1795875067       13.7439504587
 Fe         9.8489391826        8.5959610638        4.9007316763
 Fe         9.8490032279        5.7622135091        9.3200565392
 Fe         9.8479280865        8.5960600555        2.1161442939
 Fe         9.8489971376        5.7621914927        6.5373303706
 Fe         7.3947192032        7.1802760620       10.9593302723
 Fe         7.3908357260        7.1815482161        4.3274173338
 Fe         9.8480251280        8.5968703472        8.7469872145
 Fe         9.8490238954        5.7622351507       13.1716792671
 Fe         9.8490256722        5.7622111504        2.6903217760
 Fe         7.3938401879        7.1783426881        7.1085441854
 Fe         9.8489161577        8.5965069332       11.5310514065
 Fe        -4.8760246820       11.4297856254       13.7431465418
 Fe        -2.4212315785       12.8497883479        4.8984735765
 Fe        -2.4210937103       10.0136662785        9.3190993958
 Fe        -2.4205077026       12.8463643791        2.1160950066
 Fe        -2.4150471809       10.0168142941        6.5355215629
 Fe        -4.8759065400       11.4305796971       10.9576551643
 Fe        -4.8750133532       11.4294924357        4.3268926971
 Fe        -2.4169744119       12.8452396837        8.7428847886
 Fe        -2.4206067514       10.0128456677       13.1699882816
 Fe        -2.4232103013       10.0125321361        2.6871100305
 Fe        -4.8759726090       11.4287315376        7.1086756719
 Fe        -2.4194157444       12.8455910487       11.5298122353
 Fe         0.0331924411       11.4293559787       13.7434391344
 Fe         2.4921068738       12.8374886451        4.9072101379
 Fe         2.4864147313       10.0129701580        9.2611927252
 Fe         2.4871994333       12.8462496221        2.1193766641
 Fe         2.4863880941       10.0129141367        6.5261228672
 Fe         0.0387902679       11.4265821454       10.9535073433
 Fe         0.0312953298       11.4227172555        4.3327488534
 Fe         2.4903081571       12.8526724062        8.7504897445
 Fe         2.4865998949       10.0129179803       13.1724125232
 Fe         2.4865850035       10.0129918634        2.6984668052
 Fe         0.0540654364       11.4139345965        7.1062154033
 Fe         2.4864851892       12.8432380183       11.5291412476
 Fe         4.9399325797       11.4294209354       13.7434455261
 Fe         7.3972109254       12.8448028709        4.8984754937
 Fe         7.3921672032       10.0136823969        9.3177891743
 Fe         7.3939542399       12.8459233211        2.1160765477
 Fe         7.3891154166       10.0159974828        6.5382839453
 Fe         4.9346399152       11.4259740645       10.9535066143
 Fe         4.9352299564       11.4343555980        4.3327900838
 Fe         7.3911427830       12.8433294094        8.7428561948
 Fe         7.3933293342       10.0128846730       13.1707150669
 Fe         7.3919968488       10.0139866157        2.6904783460
 Fe         4.9160633348       11.4187449046        7.1061934425
 Fe         7.3927061893       12.8453373898       11.5297997535
  O        -0.9180348996        4.3450686155        3.5057759618
  O         3.9901382183        1.5114348551        7.9288597259
  O         1.5364737553        2.9288801769       12.3509516366
  O         4.1880314659        1.3986491954        3.5050208779
  O         1.7349805958        2.8135520530        7.9288787883
  O        -0.7189696875        4.2307087194       12.3514211315
  O         1.7337180284        3.0412953947        3.5050842109
  O        -0.7193671421        4.4582356402        7.9297723364
  O         4.1892949918        1.6257114593       12.3510186933
  O         0.9831763933        1.5110966656       14.5616249250
  O         3.4372696894        2.9261509529        5.7166636640
  O         0.9830613149        4.3448652108       10.1398432584
  O         0.7842715889        4.4595978885       14.5622142629
  O         0.7862728452        1.6274559888        5.7166436202
  O         3.2378514208        3.0428732999       10.1402914462
  O         3.2380931040        2.8137431950       14.5616725956
  O         0.7811737358        4.2281689886        5.7170454079
  O         0.7848197676        1.3962975450       10.1403474667
  O         3.9910519291        4.3427186931        3.5035788057
  O         8.8980034871        1.5197761414        7.9314987804
  O         6.4444598065        2.9280248009       12.3513996138
  O         9.0974095712        1.3995500214        3.5037549327
  O         6.6416683609        2.8145504331        7.9296963493
  O         4.1892070151        4.2300901938       12.3510647520
  O         6.6429784443        3.0433113803        3.5058458685
  O         4.1909139335        4.4562023392        7.9313149921
  O         9.0984976622        1.6268039606       12.3523394646
  O         5.8910670289        1.5117865171       14.5622173137
  O         8.3439639188        2.9289754483        5.7185258949
  O         5.8917253372        4.3451181481       10.1410444690
  O         5.6935831881        4.4593650982       14.5615337988
  O         5.6921014710        1.6300778515        5.7169789236
  O         8.1460127543        3.0440915263       10.1406506230
  O         8.1462625728        2.8140350831       14.5618975769
  O         5.6925068746        4.2312682671        5.7179520842
  O         5.6922753516        1.3969492319       10.1398981800
  O         8.8991026739        4.3444360468        3.5065751964
  O        13.8092759765        1.5150938438        7.9312725269
  O        11.3531401637        2.9295523392       12.3521355000
  O        14.0074097819        1.3986774238        3.5035832913
  O        11.5517800699        2.8163412020        7.9294831858
  O         9.0970808273        4.2309869238       12.3517598726
  O        11.5516314552        3.0453288376        3.5055347106
  O         9.0975398736        4.4608227946        7.9293838335
  O        14.0058704201        1.6266039991       12.3511189836
  O        10.7999156515        1.5122272347       14.5612342900
  O        13.2531835547        2.9279358627        5.7179032247
  O        10.7991443346        4.3457821460       10.1411044540
  O        10.6010285956        4.4604442527       14.5626754072
  O        10.6015219908        1.6361753441        5.7162803712
  O        13.0550209189        3.0435332966       10.1410317324
  O        13.0551446791        2.8147966328       14.5615998682
  O        10.6007757490        4.2332122949        5.7171650765
  O        10.6035302045        1.4002056184       10.1437008997
  O        -3.3741077052        8.5950265052        3.5054784723
  O         1.5361835791        5.7618501832        7.9256420994
  O        -0.9190608611        7.1798281148       12.3522963457
  O         1.7361106842        5.6445008717        3.5058929279
  O        -0.7262888251        7.0595550085        7.9314798802
  O        -3.1746308864        8.4809891169       12.3521468117
  O        -0.7216984430        7.2926173984        3.5038528224
  O        -3.1759926740        8.7096312274        7.9295276816
  O         1.7355722468        5.8764516477       12.3524380591
  O        -1.4711233412        5.7615792352       14.5618720137
  O         0.9778698776        7.1751308254        5.7146583353
  O        -1.4753565740        8.5964728967       10.1436185935
  O        -1.6705272715        8.7105669234       14.5612283565
  O        -1.6696161159        5.8752675853        5.7184861752
  O         0.7766875413        7.2867216156       10.1504967898
  O         0.7838865246        7.0639051020       14.5625033472
  O        -1.6788907617        8.4767498714        5.7162835608
  O        -1.6703415753        5.6462867866       10.1407181695
  O         1.5343953206        8.5945371244        3.5060142636
  O         6.4466108154        5.7604986318        7.9294570669
  O         3.9900827713        7.1792823445       12.3511586743
  O         6.6449447928        5.6461826974        3.5055070362
  O         4.1943125828        7.0550585384        7.9331548067
  O         1.7350367038        8.4804681604       12.3534341532
  O         4.1927021367        7.2892281263        3.4978280931
  O         1.7085489094        8.6746779001        7.9573344361
  O         6.6439683171        5.8760027990       12.3521943806
  O         3.4374583519        5.7608057256       14.5605636702
  O         5.8996639628        7.1736055015        5.7163425526
  O         3.4364693095        8.5999551375       10.1394167552
  O         3.2387890228        8.7110197202       14.5626760468
  O         3.2379976997        5.8561977585        5.7187754562
  O         5.6942953995        7.2898433979       10.1436844435
  O         5.6930852294        7.0637589819       14.5612759305
  O         3.2624444284        8.4070525398        5.7140391793
  O         3.2377330379        5.6471786079       10.1414306052
  O         6.4467025135        8.5944095463        3.5037833419
  O        11.3518723353        5.7619670822        7.9293186156
  O         8.8990751288        7.1790575829       12.3517410143
  O        11.5519139817        5.6482919635        3.5065757543
  O         9.0978521987        7.0637083614        7.9293526417
  O         6.6430475385        8.4799421282       12.3523011622
  O         9.0963120286        7.2937737029        3.5066247099
  O         6.6505524466        8.7070712113        7.9315800644
  O        11.5511704991        5.8765089024       12.3518096171
  O         8.3458272021        5.7619058422       14.5626949693
  O        10.7973194950        7.1776106744        5.7171259493
  O         8.3467239678        8.5961821496       10.1406762890
  O         8.1473489947        8.7109506694       14.5618655846
  O         8.1491333500        5.8756330709        5.7171259845
  O        10.6007147412        7.2931336739       10.1410905530
  O        10.6004975191        7.0642119400       14.5627381110
  O         8.1480776581        8.4822019977        5.7185658867
  O         8.1474226230        5.6476171587       10.1411382627
  O        -5.8241738950       12.8465836804        3.5050393803
  O        -0.9287255920       10.0128197436        7.9330755506
  O        -3.3725992508       11.4298282448       12.3510537369
  O        -0.7249858677        9.8971571380        3.4977722236
  O        -3.1777919073       11.3152642327        7.9313044319
  O        -5.6281504514       12.7319541404       12.3509694098
  O        -3.1760060157       11.5451518390        3.5036437723
  O        -5.6275627892       12.9615793784        7.9289293269
  O        -0.7189892467       10.1277089740       12.3512507422
  O        -3.9262360145       10.0123898975       14.5615785097
  O        -1.4892153531       11.4405013629        5.7187517489
  O        -3.9250903882       12.8473859260       10.1403059170
  O        -4.1236372075       12.9616858954       14.5616145304
  O        -4.1233303381       10.1273164438        5.7178951922
  O        -1.6696713722       11.5452558286       10.1413719897
  O        -1.6711171309       11.3154927841       14.5606338178
  O        -4.1260357806       12.7330306127        5.7166952363
  O        -4.1242966606        9.8979122186       10.1411049091
  O        -0.9210793103       12.8470465270        3.5057860894
  O         4.0339887843       10.0076501460        7.9558848400
  O         1.5354427636       11.4300114184       12.3534253984
  O         4.1910893724        9.8972545921        3.5060969865
  O         1.7166063544       11.3560677810        7.9564544793
  O        -0.7200246309       12.7315656735       12.3523945994
  O         1.7345717547       11.5468527484        3.5061646476
  O        -0.7196583035       12.9615545180        7.9257235422
  O         4.1895754297       10.1281493700       12.3534726972
  O         0.9831951632       10.0124794065       14.5627109019
  O         3.4894888434       11.4876930703        5.7138849165
  O         0.9808757114       12.8567757427       10.1504547044
  O         0.7842230793       12.9620170970       14.5624169643
  O         0.7078040723       10.1439164055        5.7140026291
  O         3.2355198963       11.5419104150       10.1392147063
  O         3.2380595612       11.3151708652       14.5627784612
  O         0.7833094882       12.7382576598        5.7146210636
  O         0.7879835063        9.8968928309       10.1394786986
  O         3.9922722659       12.8522979793        3.4978634253
  O         8.9000658544       10.0137020354        7.9296916125
  O         6.4444861356       11.4306018425       12.3523643958
  O         9.0974916599        9.8981872951        3.5058040282
  O         6.6432932934       11.3152555411        7.9256977586
  O         4.1889003532       12.7316377304       12.3511878744
  O         6.6449500271       11.5470776337        3.5058037862
  O         4.1944599139       12.9706607296        7.9330357780
  O         9.0969876058       10.1278080829       12.3514728192
  O         5.8919360557       10.0126927915       14.5624485147
  O         8.3490489584       11.4283072465        5.7169929141
  O         5.8919189652       12.8462087585       10.1414237171
  O         5.6936726781       12.9623242114       14.5605778664
  O         5.6987561286       10.1251772327        5.7145375977
  O         8.1471290028       11.5447097535       10.1398165534
  O         8.1471532213       11.3151670488       14.5622709783
  O         5.7107876662       12.7421441205        5.7187566542
  O         5.7022960638        9.8951329433       10.1503467279
