     270
 i =        2, E =     -8111.7787333336
 Ti         0.0009818212       -0.0000426790        0.0001154402
 Ti         2.3135771441        2.3093771757        1.4878625213
 Ti         4.6328940239        0.0098930402        0.0000972733
 Ti         6.9345855239        2.3115799718        1.5020168502
 Ti         9.2432018632        0.0024755766        0.0000995506
 Ti        11.5554363714        2.3135876755        1.4877193634
 Ti        -0.0007612702        4.6231895776        0.0001151762
 Ti         2.3123944301        6.9338269788        1.4872815201
 Ti         4.6254773979        4.6201981881        0.0000995466
 Ti         6.9365899785        6.9324327866        1.4877192487
 Ti         9.2362556542        4.6132542540        0.0000970857
 Ti        11.5545763844        6.9315685632        1.4887053883
 Ti         0.0000675276        9.2460660806        0.0001061852
 Ti         2.3145497768       11.5605490354        1.4887172322
 Ti         4.6229610244        9.2469824418        0.0001154858
 Ti         6.9323812194       11.5595744285        1.4878632124
 Ti         9.2461903640        9.2452363010        0.0001152218
 Ti        11.5568300985       11.5583903516        1.4872815652
 Ti        -0.0013296546        0.0019063780        2.9758688886
 Ti         2.3155217823        2.3067894519        4.4660674810
 Ti         4.6308972983        0.0078904146        2.9775458888
 Ti         6.9347069613        2.3116934591        4.5015346471
 Ti         9.2472135609       -0.0006045554        2.9800749637
 Ti        11.5546824904        2.3174310380        4.4659333584
 Ti         0.0019087143        4.6216770619        2.9758618368
 Ti         2.3138876362        6.9327904370        4.4656066280
 Ti         4.6224008334        4.6242072647        2.9800742236
 Ti         6.9404339231        6.9316831535        4.4659315716
 Ti         9.2383700505        4.6153667906        2.9775447878
 Ti        11.5544635820        6.9314354074        4.4692618356
 Ti         0.0000866524        9.2460822270        2.9770760382
 Ti         2.3147525228       11.5607526111        4.4692501486
 Ti         4.6249020479        9.2446639043        2.9758683194
 Ti         6.9298104806       11.5614883725        4.4660651462
 Ti         9.2446891840        9.2479017227        2.9758591342
 Ti        11.5558046658       11.5598858054        4.4656048461
 Ti         0.0003789004       -0.0001256702        5.9577404309
 Ti         2.3113668107        2.3130828049        7.4536210737
 Ti         4.6379457034        0.0149007746        5.9585107925
 Ti         6.9349551430        2.3119398074        7.4535311177
 Ti         9.2426855933        0.0060773785        5.9648620303
 Ti        11.5602466151        2.3125824057        7.4536208458
 Ti         0.0019699896        4.6255061824        5.9578746953
 Ti         2.3134231505        6.9357263935        7.4536224405
 Ti         4.6290849966        4.6196749861        5.9648616963
 Ti         6.9355716421        6.9372410866        7.4536208654
 Ti         9.2316031085        4.6086041112        5.9584983129
 Ti        11.5491860448        6.9261487622        7.4536258860
 Ti         0.0001398571        9.2461313054        5.9590691576
 Ti         2.3201217781       11.5661204209        7.4536262247
 Ti         4.6228833743        9.2463879591        5.9577399063
 Ti         6.9361482074       11.5573305025        7.4536211089
 Ti         9.2485333604        9.2479294944        5.9578707174
 Ti        11.5587164254       11.5593915604        7.4536224453
 Ti         0.0003777162       -0.0001214326        8.9494822854
 Ti         2.3155271263        2.3067868367       10.4411817806
 Ti         4.6379619114        0.0149170298        8.9486784855
 Ti         6.9347068931        2.3116933625       10.4055470230
 Ti         9.2426769110        0.0060844467        8.9423205388
 Ti        11.5546749100        2.3174311189       10.4413146342
 Ti         0.0019713022        4.6255018011        8.9493472361
 Ti         2.3138951453        6.9327829170       10.4416420412
 Ti         4.6290920585        4.6196662676        8.9423208533
 Ti         6.9404339847        6.9316755449       10.4413164587
 Ti         9.2315868123        4.6085877991        8.9486910198
 Ti        11.5544562694        6.9314281429       10.4379840861
 Ti         0.0001396722        9.2461311100        8.9481410306
 Ti         2.3147593779       11.5607594645       10.4379960999
 Ti         4.6228876400        9.2463868058        8.9494828895
 Ti         6.9298078515       11.5614938011       10.4411841952
 Ti         9.2485289098        9.2479308397        8.9493513034
 Ti        11.5557971555       11.5598932638       10.4416438397
 Ti        -0.0013297453        0.0019075552       11.9313603369
 Ti         2.3135780450        2.3093735885       13.4193910654
 Ti         4.6309094610        0.0079026152       11.9296455501
 Ti         6.9345854340        2.3115798687       13.4050845465
 Ti         9.2472130079       -0.0006053385       11.9271189998
 Ti        11.5554357578        2.3135918658       13.4195324373
 Ti         0.0019081334        4.6216754376       11.9313667152
 Ti         2.3123947660        6.9338254005       13.4199707129
 Ti         4.6224000724        4.6242066831       11.9271197224
 Ti         6.9365941731        6.9324321873       13.4195326005
 Ti         9.2383575355        4.6153542826       11.9296462365
 Ti        11.5545729161        6.9315651129       13.4185385878
 Ti         0.0000865968        9.2460821390       11.9301350419
 Ti         2.3145533000       11.5605525435       13.4185270676
 Ti         4.6249032397        9.2446638121       11.9313609805
 Ti         6.9323775869       11.5595753250       13.4193904560
 Ti         9.2446875138        9.2479011602       11.9313695069
 Ti        11.5568285451       11.5583906634       13.4199706790
  O         1.4086461076        1.4097256461       -0.0000057166
  O         3.2128751496        3.2131586151       -0.0000054491
  O         0.9025630900        3.7209584081        1.4867352524
  O         3.7190797037        0.9024918777        1.4857640977
  O         6.0308252776        1.4078245288       -0.0000055518
  O         7.8382566818        3.2152555215       -0.0000055345
  O         5.5228741222        3.7231887902        1.4862241370
  O         8.3461898531        0.8998728744        1.4862237728
  O        10.6561767265        1.4098955724       -0.0000053185
  O        12.4604268830        3.2133214762       -0.0000057156
  O        10.1500027406        3.7205884371        1.4857722528
  O        12.9665352915        0.9021216039        1.4867156244
  O         1.4095451006        6.0323147087       -0.0000057616
  O         3.2137439221        7.8365330525       -0.0000056702
  O         0.9027093990        8.3433361699        1.4866763334
  O         3.7198246245        5.5262560103        1.4865236839
  O         6.0328964363        6.0331757470       -0.0000053179
  O         7.8363218425        7.8374258627       -0.0000057151
  O         5.5251217052        8.3435339046        1.4867160932
  O         8.3435886450        5.5270021447        1.4857720712
  O        10.6559038371        6.0329025574       -0.0000058953
  O        12.4599969728        7.8369957235       -0.0000079889
  O        10.1466872289        8.3452045716        1.4867600644
  O        12.9682059950        5.5236861527        1.4867601245
  O         1.4090518464       10.6550514408       -0.0000079971
  O         3.2131603056       12.4591597692       -0.0000058811
  O         0.9008794612       12.9683926918        1.4867483372
  O         3.7223931702       10.1468787086        1.4867486885
  O         6.0327268394       10.6546445063       -0.0000057175
  O         7.8361596801       12.4588732284       -0.0000054485
  O         5.5254934825       12.9650778184        1.4857632778
  O         8.3439596491       10.1485619140        1.4867357651
  O        10.6553158306       10.6555440540       -0.0000057614
  O        12.4595338791       12.4597436612       -0.0000056718
  O        10.1492569018       12.9658231612        1.4865233530
  O        12.9663370360       10.1487087351        1.4866763522
  O         1.4076436998        1.4102801065        2.9732137045
  O         3.2121759905        3.2130299041        2.9743535410
  O         0.9015227552        3.7205833517        4.4647840148
  O         3.7099219747        0.8980682514        4.4563097420
  O         6.0294562495        1.4064519757        2.9643118209
  O         7.8397151147        3.2167137812        2.9643229869
  O         5.5205361314        3.7256444304        4.4605982382
  O         8.3486508812        0.8975340206        4.4605944990
  O        10.6569560820        1.4100901908        2.9744543878
  O        12.4615607235        3.2128737686        2.9731735873
  O        10.1596205803        3.7252646360        4.4562507820
  O        12.9678779972        0.9028397098        4.4646378416
  O         1.4095253002        6.0322384541        2.9743243097
  O         3.2138290411        7.8365234602        2.9743777731
  O         0.9024987347        8.3434802378        4.4634336925
  O         3.7182770498        5.5278398502        4.4619691590
  O         6.0330909855        6.0339549875        2.9744564881
  O         7.8358751233        7.8385588048        2.9731740062
  O         5.5258417087        8.3448780635        4.4646392037
  O         8.3482651488        5.5366192647        4.4562523476
  O        10.6571337589        6.0341317573        2.9726553602
  O        12.4601753136        7.8371731394        2.9740357567
  O        10.1464346245        8.3455223341        4.4642276676
  O        12.9685253420        5.5234332902        4.4642276951
  O         1.4088732876       10.6548720764        2.9740354830
  O         3.2119898212       12.4579896834        2.9726189143
  O         0.9007120226       12.9687747200        4.4640619666
  O         3.7227772598       10.1467129808        4.4640636209
  O         6.0332814846       10.6536401977        2.9732137986
  O         7.8360308052       12.4581731000        2.9743565149
  O         5.5210668301       12.9559071006        4.4563090528
  O         8.3435836211       10.1475180867        4.4647847971
  O        10.6552398601       10.6555235465        2.9743239578
  O        12.4595245008       12.4598281376        2.9743766165
  O        10.1508444263       12.9642762041        4.4619684678
  O        12.9664829879       10.1484979719        4.4634334669
  O         1.4090176631        1.4094737992        5.9598760462
  O         3.2126755121        3.2125070473        5.9537928269
  O         0.9041389869        3.7214756622        7.4534797029
  O         3.7236819607        0.9056973823        7.4534927940
  O         5.9975946184        1.3745555552        5.8813471863
  O         7.8721287400        3.2491166560        5.8809983907
  O         5.5042136568        3.7432417035        7.4535012776
  O         8.3662509287        0.8812006812        7.4535012772
  O        10.6566799441        1.4106778092        5.9533094835
  O        12.4602383394        3.2136860874        5.9604942806
  O        10.1456002666        3.7175499195        7.4534929792
  O        12.9653010752        0.9017109495        7.4534802258
  O         1.4089616294        6.0327903483        5.9563896101
  O         3.2134845589        7.8372674969        5.9556028720
  O         0.9026828513        8.3439278219        7.4534772536
  O         3.7135768847        5.5334839514        7.4534758231
  O         6.0336790834        6.0336784540        5.9533066556
  O         7.8366890306        7.8372361772        5.9605004489
  O         5.5247078114        8.3422952829        7.4534802205
  O         8.3405481799        5.5225958082        7.4534929782
  O        10.6601562766        6.0371528282        5.9552834282
  O        12.4612778760        7.8382731653        5.9550895356
  O        10.1471521881        8.3453014989        7.4534792904
  O        12.9683058963        5.5241468328        7.4534792753
  O         1.4079060052       10.6539053875        5.9548484789
  O         3.2090342401       12.4550322696        5.9553350327
  O         0.9009084955       12.9680979792        7.4534799536
  O         3.7220973292       10.1469089050        7.4534799506
  O         6.0324796298       10.6550101705        5.9598887225
  O         7.8355119974       12.4586694928        5.9537859179
  O         5.5287067459       12.9696774297        7.4534928160
  O         8.3444853024       10.1501388451        7.4534796713
  O        10.6557946628       10.6549565292        5.9563856185
  O        12.4602686584       12.4594830292        5.9556045836
  O        10.1564832602       12.9595666469        7.4534758202
  O        12.9669272222       10.1486782589        7.4534772483
  O         1.4090166428        1.4094740097        8.9470938134
  O         3.2126724126        3.2125070077        8.9531857841
  O         0.9015215782        3.7205847335       10.4421935544
  O         3.7099219177        0.8980677893       10.4506806372
  O         5.9975966901        1.3745576319        9.0256561718
  O         7.8721265968        3.2491145008        9.0260048502
  O         5.5205326475        3.7256479429       10.4463877723
  O         8.3486543999        0.8975305337       10.4463915113
  O        10.6566832698        1.4106780482        8.9536684877
  O        12.4602398064        3.2136863847        8.9464774314
  O        10.1596202220        3.7252649066       10.4507397168
  O        12.9678794144        0.9028385273       10.4423402601
  O         1.4089630231        6.0327906677        8.9505781604
  O         3.2134844496        7.8372663372        8.9513691580
  O         0.9024971380        8.3434815092       10.4435423462
  O         3.7182776486        5.5278390376       10.4450104140
  O         6.0336793238        6.0336817776        8.9536713243
  O         7.8366893237        7.8372376497        8.9464712426
  O         5.5258405317        8.3448794865       10.4423388967
  O         8.3482654172        5.5366189046       10.4507381507
  O        10.6601604152        6.0371569659        8.9516982013
  O        12.4612771599        7.8382724479        8.9518706731
  O        10.1464341771        8.3455239953       10.4427508386
  O        12.9685270065        5.5234328427       10.4427508000
  O         1.4079067337       10.6539061147        8.9521125632
  O         3.2090301724       12.4550282049        8.9516467458
  O         0.9007107402       12.9687755899       10.4429170096
  O         3.7227781340       10.1467117036       10.4429153553
  O         6.0324798442       10.6550091513        8.9470810996
  O         7.8355119647       12.4586663928        8.9531927034
  O         5.5210663736       12.9559070465       10.4506813361
  O         8.3435850009       10.1475169059       10.4421927531
  O        10.6557949748       10.6549579221        8.9505821648
  O        12.4602674970       12.4594829109        8.9513674234
  O        10.1508436156       12.9642767980       10.4450111033
  O        12.9664842613       10.1484963732       10.4435425677
  O         1.4076435369        1.4102810598       11.9337726115
  O         3.2121744766        3.2130289801       11.9326326147
  O         0.9025632527        3.7209587118       13.4202515683
  O         3.7190796867        0.9024915202       13.4212266327
  O         6.0294578960        1.4064536243       11.9426801015
  O         7.8397134252        3.2167120886       11.9426689553
  O         5.5228722210        3.7231906862       13.4207635770
  O         8.3461917505        0.8998709700       13.4207639384
  O        10.6569577219        1.4100912380       11.9325315523
  O        12.4615611442        3.2128732167       11.9338132258
  O        10.1500027327        3.7205887949       13.4212185672
  O        12.9665351886        0.9021213354       13.4202712662
  O         1.4095261793        6.0322390046       11.9326603737
  O         3.2138284728        7.8365226000       11.9326069421
  O         0.9027089907        8.3433365081       13.4203098501
  O         3.7198242715        5.5262563352       13.4204623043
  O         6.0330920343        6.0339566266       11.9325294505
  O         7.8358745694        7.8385592301       11.9338128086
  O         5.5251214374        8.3435338007       13.4202707988
  O         8.3435890041        5.5270021372       13.4212187479
  O        10.6571361976        6.0341341962       11.9343306240
  O        12.4601745724        7.8371723966       11.9329445141
  O        10.1466862812        8.3452052661       13.4202266172
  O        12.9682066892        5.5236852054       13.4202265546
  O         1.4088739979       10.6548727844       11.9329447561
  O         3.2119873970       12.4579872615       11.9343672627
  O         0.9008787747       12.9683937159       13.4202384201
  O         3.7223941937       10.1468780215       13.4202380689
  O         6.0332824360       10.6536400331       11.9337725202
  O         7.8360298810       12.4581715823       11.9326296357
  O         5.5254931232       12.9650778013       13.4212274526
  O         8.3439599512       10.1485620752       13.4202510558
  O        10.6552404118       10.6555244266       11.9326607232
  O        12.4595236456       12.4598275653       11.9326080996
  O        10.1492572279       12.9658228056       13.4204626361
  O        12.9663373755       10.1487083238       13.4203098303
