      77
 i =      107, E =     -1335.5307908627
 Fe        18.3388405133       -0.0000087341       -0.0000015614
 Fe        15.2678966288       -0.0003952447       -0.0000533048
 Fe        12.1833743633       -0.0000710688       -0.0004797988
 Fe         9.1695774056        0.0227735697        0.0000661184
 Fe         6.1562385343        0.0006036955        0.0000048871
 Fe         3.0718742716       -0.0004062491       -0.0004057057
 Fe         0.0008662856       -0.0000283819       -0.0000112522
  O        18.3394823946       -0.0332407495        2.1140655446
  O        18.3385578546        0.0332198454       -2.1139518484
  O        19.8609493870       -1.2623740482       -0.0268392583
  O        19.8609845866        1.2622697328        0.0267728437
  O        15.3211809035       -0.0287469865        2.1574176148
  O        15.3209948934        0.0285846090       -2.1571879782
  O        16.8177236998       -1.2577176584       -0.0270771052
  O        16.8180356600        1.2572614275        0.0273426330
  O        12.2833399718        0.0325746532        2.1708796555
  O        12.2829415065       -0.0331502268       -2.1707400636
  O        13.7830748241       -1.2565746773        0.0206554471
  O        13.7869362568        1.2566275211       -0.0215988100
  O         9.1706589317        0.0375563020        2.2295245118
  O         9.1706406769        0.0272261014       -2.2311589879
  O        10.7974147541       -1.3003645748        0.0292862624
  O        10.8207239682        1.3238187009       -0.0287153279
  O         6.0570340636        0.0325874618        2.1700597371
  O         6.0576100355       -0.0331564758       -2.1702061024
  O         7.5420372485       -1.3002944601        0.0292670987
  O         7.5195447809        1.3239396708       -0.0287310865
  O         3.0166803057       -0.0289535262        2.1545106120
  O         3.0168408510        0.0285490435       -2.1552254908
  O         4.5560870965       -1.2566546320        0.0202872020
  O         4.5522040079        1.2565772545       -0.0217182629
  O        -0.0201250348       -0.0334106910        2.1146779787
  O        -0.0201055811        0.0333591336       -2.1147137889
  O         1.5197888352       -1.2573210548       -0.0273775251
  O         1.5195616811        1.2567959497        0.0272281999
  H        18.2540958262       -0.7741054435       -2.6828009094
  H        18.2224534499        0.8512549682       -2.6618461477
  H        18.2263594349       -0.8513460851        2.6624598219
  H        18.2512809086        0.7741153175        2.6822316383
  H        19.8607317293       -2.2512842870       -0.0306859295
  H        19.8607596887        2.2511764425        0.0303724421
  H        15.1648162344       -0.7837955097       -2.7058325138
  H        15.0479401878        0.8338111591       -2.6684838490
  H        15.0583411543       -0.8359047045        2.6711179046
  H        15.1570142921        0.7829617383        2.7046011339
  H        16.8075709966       -2.2466046435       -0.0270656611
  H        16.8072544671        2.2461430232        0.0269630319
  H        12.1100138443       -0.8585538806       -2.6940681753
  H        12.0381328427        0.7662675595       -2.7042750150
  H        12.0533147257       -0.7686525598        2.7082258506
  H        12.0974947849        0.8569429927        2.6907531010
  H        13.7572346712       -2.2444214369        0.0168864080
  H        13.7606028447        2.2443532321       -0.0161927493
  H         9.1681962777       -0.7812508408       -2.8049893690
  H         9.1683652925        0.8464610926       -2.7900271280
  H         9.1681483889       -0.7781651535        2.7931267355
  H         9.1678820341        0.8499705345        2.7984454908
  H        10.7801189781       -2.2870700584        0.0330026833
  H        10.8177651810        2.3111032450       -0.0344396624
  H         6.2250533062       -0.8584835044       -2.6950155120
  H         6.2969011509        0.7665801759       -2.7053885606
  H         6.2811689503       -0.7690178418        2.7093452745
  H         6.2368441742        0.8570548837        2.6919545860
  H         7.5588835963       -2.2871184007        0.0329295847
  H         7.5217394414        2.3107148785       -0.0343741046
  H         3.1611129674       -0.7835295119       -2.7073069385
  H         3.2775744623        0.8348040209       -2.6710397093
  H         3.2672818338       -0.8369905263        2.6725990645
  H         3.1683482863        0.7826290229        2.7052554814
  H         4.5818570639       -2.2446274741        0.0162667766
  H         4.5782840754        2.2445006888       -0.0172421496
  H         0.0441192163       -0.7742811306       -2.6856073957
  H         0.0773814820        0.8513994975       -2.6660935358
  H         0.0745641907       -0.8514218016        2.6666167821
  H         0.0455187814        0.7743769007        2.6851688318
  H         1.5294918161       -2.2459429515       -0.0276486849
  H         1.5299174868        2.2454741208        0.0271017319
