     270
 i =        2, E =    -15907.3647821320
 Fe         0.0322926926        2.9285964650       13.7684775546
 Fe         2.4859457181        4.3469769686        4.9260346650
 Fe         2.4927197688        1.5086461459        9.3466138390
 Fe         2.4865420086        4.3456494846        2.0893259791
 Fe         2.4879114096        1.5119971007        6.5120999430
 Fe         0.0325208896        2.9286997844       10.9288296486
 Fe         0.0325282520        2.9280761248        4.3005844985
 Fe         2.4840582787        4.3456883257        8.7213429631
 Fe         2.4863493666        1.5119134421       13.1438665595
 Fe         2.4861624520        1.5106302178        2.7142624066
 Fe         0.0327950711        2.9286375739        7.1362667709
 Fe         2.4855098807        4.3469060058       11.5570220743
 Fe         4.9408056052        2.9278566809       13.7707830815
 Fe         7.3962060258        4.3424166589        4.9298253905
 Fe         7.3892146170        1.5061624412        9.3447034261
 Fe         7.3947211321        4.3444710510        2.0903521818
 Fe         7.3827460753        1.5050332187        6.5188719723
 Fe         4.9384979316        2.9307109435       10.9336853123
 Fe         4.9410367906        2.9289812781        4.2996049059
 Fe         7.3987657152        4.3484782916        8.7253496795
 Fe         7.3944945868        1.5110926930       13.1428930917
 Fe         7.3936071284        1.5081968712        2.7164117838
 Fe         4.9397297473        2.9288603965        7.1373858277
 Fe         7.3949922698        4.3444202254       11.5576270174
 Fe         9.8482576062        2.9280218646       13.7699666255
 Fe        12.3024537669        4.3442583674        4.9261256531
 Fe        12.2979997308        1.5078866064        9.3469820433
 Fe        12.3027101964        4.3450481870        2.0894874428
 Fe        12.3023845902        1.5111620447        6.5131508960
 Fe         9.8458944731        2.9271627899       10.9296365780
 Fe         9.8473080512        2.9279697371        4.3036156555
 Fe        12.3037939451        4.3434114452        8.7206521656
 Fe        12.3032229364        1.5122356268       13.1436160623
 Fe        12.3022466182        1.5119081025        2.7146838866
 Fe         9.8439780562        2.9258877038        7.1361031395
 Fe        12.3023895029        4.3437460465       11.5570414147
 Fe        -2.4213468793        7.1792613464       13.7709079359
 Fe         0.0314011896        8.5940543278        4.9246747207
 Fe         0.0316315491        5.7690798774        9.3462958671
 Fe         0.0331281738        8.5975070076        2.0907363485
 Fe         0.0322982185        5.7634975786        6.5117443824
 Fe        -2.4226053526        7.1762675968       10.9341315536
 Fe        -2.4224032965        7.1790583390        4.3000103184
 Fe         0.0272569571        8.6068891025        8.7149648772
 Fe         0.0325014257        5.7622020432       13.1435372590
 Fe         0.0331146261        5.7622299688        2.7144348054
 Fe        -2.4209888141        7.1780706795        7.1375520063
 Fe         0.0326945217        8.5957629369       11.5554559975
 Fe         2.4859879153        7.1793504027       13.7697854647
 Fe         4.9379714858        8.5968314083        4.9289944607
 Fe         4.9398415371        5.7607688814        9.3463684448
 Fe         4.9400445789        8.5963487718        2.0898591018
 Fe         4.9413366329        5.7631324806        6.5122893031
 Fe         2.4875266709        7.1832039019       10.9290943426
 Fe         2.4869426779        7.1810789227        4.3037657613
 Fe         4.9409896670        8.5915551405        8.7250274971
 Fe         4.9407105174        5.7620202962       13.1446042734
 Fe         4.9408677767        5.7627840887        2.7154967733
 Fe         2.4870127610        7.1837660814        7.1363783120
 Fe         4.9397847928        8.5959450112       11.5588538502
 Fe         7.3948567181        7.1789449404       13.7704936060
 Fe         9.8508010809        8.5975014950        4.9290706747
 Fe         9.8502793365        5.7624983446        9.3470388360
 Fe         9.8495327850        8.5967886850        2.0900952749
 Fe         9.8480161597        5.7616304409        6.5123023031
 Fe         7.3946019717        7.1794255899       10.9336661597
 Fe         7.3943239788        7.1792171312        4.3007164389
 Fe         9.8446445179        8.5974899899        8.7250174581
 Fe         9.8487553564        5.7620889338       13.1442507329
 Fe         9.8484510921        5.7624543565        2.7151264561
 Fe         7.3947801327        7.1791505229        7.1371111862
 Fe         9.8499171361        8.5967528343       11.5579509900
 Fe        -4.8753140544       11.4297276215       13.7690401598
 Fe        -2.4235841029       12.8483167771        4.9243188887
 Fe        -2.4145726129       10.0098382302        9.3433570860
 Fe        -2.4214187615       12.8453007652        2.0902289412
 Fe        -2.4112831239       10.0065182397        6.5174651807
 Fe        -4.8738084741       11.4274291689       10.9295994714
 Fe        -4.8747918051       11.4279659715        4.3034566127
 Fe        -2.4098735418       12.8452598310        8.7144178855
 Fe        -2.4210285790       10.0129413885       13.1442978700
 Fe        -2.4189335630       10.0139248293        2.7167757993
 Fe        -4.8719900048       11.4276547928        7.1366544586
 Fe        -2.4224400145       12.8468287480       11.5552089443
 Fe         0.0322933636       11.4300043265       13.7675624726
 Fe         2.4883148189       12.8479721592        4.9250667297
 Fe         2.4847205950       10.0214592613        9.3437445988
 Fe         2.4847376941       12.8469019266        2.0899425511
 Fe         2.4876252107       10.0252482171        6.5182834247
 Fe         0.0321214180       11.4297122794       10.9245509719
 Fe         0.0326616510       11.4296488427        4.3302523640
 Fe         2.4799889954       12.8376477518        8.7140904758
 Fe         2.4861051789       10.0132654141       13.1442359818
 Fe         2.4842178183       10.0151633478        2.7164759978
 Fe         0.0324145259       11.4299077486        7.1074651649
 Fe         2.4868492041       12.8466543371       11.5557756703
 Fe         4.9403217220       11.4302336422       13.7702931510
 Fe         7.3961672023       12.8462982222        4.9263194268
 Fe         7.3940244524       10.0137874768        9.3464940065
 Fe         7.3948381768       12.8466365894        2.0888456047
 Fe         7.3953007827       10.0123773110        6.5124716420
 Fe         4.9435246626       11.4300284619       10.9338636296
 Fe         4.9407262912       11.4296995025        4.2995284017
 Fe         7.3961122495       12.8486721997        8.7207835296
 Fe         7.3947118801       10.0131423539       13.1445782215
 Fe         7.3949210527       10.0126007234        2.7146656942
 Fe         4.9415679536       11.4309475646        7.1364474102
 Fe         7.3965782292       12.8471791596       11.5569837010
  O        -0.9077112379        4.3444849355        3.5058192250
  O         3.9936472168        1.5169473527        7.9302187235
  O         1.5457205619        2.9285063667       12.3508517950
  O         4.1843609479        1.4071290996        3.5039435555
  O         1.7292935492        2.8236161551        7.9289577589
  O        -0.7242088713        4.2389636137       12.3508347971
  O         1.7291071002        3.0346428988        3.5058362863
  O        -0.7248279325        4.4496199426        7.9294406388
  O         4.1834255710        1.6181322531       12.3523944334
  O         0.9732266678        1.5113929670       14.5624308288
  O         3.4258489008        2.9294082386        5.7168101158
  O         0.9726939120        4.3460715021       10.1391191955
  O         0.7895441497        4.4515192474       14.5622658529
  O         0.7894706335        1.6188257208        5.7171111556
  O         3.2421908551        3.0362134811       10.1406615778
  O         3.2425847077        2.8231614803       14.5622078227
  O         0.7885962387        4.2385354225        5.7175035423
  O         0.7897846236        1.4055698706       10.1389958758
  O         3.9994272191        4.3454370852        3.5055222909
  O         8.9097881332        1.5156355258        7.9305558775
  O         6.4539437678        2.9287228233       12.3528501016
  O         9.0944197728        1.4102933346        3.5013958399
  O         6.6358683656        2.8460087678        7.9263781166
  O         4.1836607677        4.2397749542       12.3522263533
  O         6.6385117755        3.0347873060        3.5060554249
  O         4.1813847819        4.4530101666        7.9289226224
  O         9.0922241932        1.6180944769       12.3512716236
  O         5.8816445185        1.5102795771       14.5632786537
  O         8.3367822431        2.9308594591        5.7215945494
  O         5.8810447621        4.3463748138       10.1422443235
  O         5.6978218588        4.4517477727       14.5629187366
  O         5.6916959765        1.6253584122        5.7136993886
  O         8.1504777123        3.0375619138       10.1391905744
  O         8.1509144241        2.8223989204       14.5623144762
  O         5.6957716367        4.2433622254        5.7153022541
  O         5.6940520341        1.4105532489       10.1456931166
  O         8.9079792575        4.3447140456        3.5064566154
  O        13.8180979286        1.5119782952        7.9291080344
  O        11.3623134309        2.9281383791       12.3518057450
  O        14.0013203990        1.4059085469        3.5053003315
  O        11.5462825473        2.8225183982        7.9281621488
  O         9.0929920847        4.2391200855       12.3514697818
  O        11.5460984240        3.0353842831        3.5066043407
  O         9.0945125747        4.4541979771        7.9296500574
  O        14.0006302618        1.6179741897       12.3508303702
  O        10.7902976055        1.5108143415       14.5619234894
  O        13.2444877691        2.9276612146        5.7172380566
  O        10.7897789745        4.3445608433       10.1405072496
  O        10.6060185099        4.4517174230       14.5621677045
  O        10.6093827489        1.6205211084        5.7165123822
  O        13.0597458810        3.0338869403       10.1392812845
  O        13.0597242243        2.8224588637       14.5625322976
  O        10.6060795683        4.2415571959        5.7171709535
  O        10.6069184809        1.4066592055       10.1424199021
  O        -3.3626951084        8.5962853805        3.5059812750
  O         1.5462627647        5.7617704421        7.9279792441
  O        -0.9083677232        7.1783157439       12.3518903240
  O         1.7308449713        5.6562010417        3.5061719158
  O        -0.7254279476        7.0644706533        7.9299424536
  O        -3.1780297281        8.4897780249       12.3528344688
  O        -0.7258478609        7.2844551985        3.5042970949
  O        -3.1974280712        8.6881858513        7.9259371208
  O         1.7299823070        5.8685471814       12.3522450901
  O        -1.4810329476        5.7611008767       14.5623214214
  O         0.9738478860        7.1747748997        5.7161537463
  O        -1.4839990508        8.5902426700       10.1449813356
  O        -1.6638783037        8.7028691826       14.5634673355
  O        -1.6644551193        5.8668193111        5.7167333031
  O         0.7897555416        7.2831378416       10.1426220765
  O         0.7883160037        7.0733734668       14.5623664443
  O        -1.6686724529        8.4811305677        5.7138557350
  O        -1.6655707038        5.6542746074       10.1408863952
  O         1.5496077803        8.5915733463        3.5012453887
  O         6.4538459685        5.7635643605        7.9299997144
  O         3.9999334381        7.1784705676       12.3518810386
  O         6.6388361362        5.6567352102        3.5058540161
  O         4.1853963009        7.0695729852        7.9296228556
  O         1.7305283359        8.4900228507       12.3511353254
  O         4.1838215962        7.2857423446        3.5065496322
  O         1.7328192173        8.6989265113        7.9308485022
  O         6.6379541583        5.8686884076       12.3521736572
  O         3.4273095759        5.7620679942       14.5626137217
  O         5.8826205993        7.1786899457        5.7172418772
  O         3.4311609489        8.5959843716       10.1388509898
  O         3.2441221909        8.7024099171       14.5621266388
  O         3.2456827010        5.8671258622        5.7170004737
  O         5.6985384393        7.2836336088       10.1413578114
  O         5.6969934289        7.0733595388       14.5627229307
  O         3.2454575166        8.4874754732        5.7215062031
  O         3.2430450997        5.6564039745       10.1407192261
  O         6.4546536747        8.5949705159        3.5055935038
  O        11.3623397671        5.7596962023        7.9293024251
  O         8.9082853450        7.1790803957       12.3524773426
  O        11.5469214719        5.6554168475        3.5054248563
  O         9.0913206172        7.0713318485        7.9301271671
  O         6.6390436281        8.4902498459       12.3520581164
  O         9.0908646394        7.2854776637        3.5057353210
  O         6.6397635695        8.7019912723        7.9302382185
  O        11.5462334385        5.8678260238       12.3522466525
  O         8.3352922928        5.7610408041       14.5626486757
  O        10.7871068824        7.1752471658        5.7157325816
  O         8.3337244246        8.5958577247       10.1414326187
  O         8.1525645868        8.7022449209       14.5626288325
  O         8.1518501093        5.8697721648        5.7170565382
  O        10.6050375014        7.2842129242       10.1426030820
  O        10.6050242241        7.0733375619       14.5629226478
  O         8.1509723417        8.4895076398        5.7178684999
  O         8.1523730990        5.6581259530       10.1416564368
  O        -5.8169866084       12.8460526161        3.5065091247
  O        -0.9518230754        9.9688696876        7.9297277146
  O        -3.3622179145       11.4292488881       12.3513681047
  O        -0.7220084080        9.9098619536        3.5090428277
  O        -3.1828117195       11.3230493849        7.9304940606
  O        -5.6320465704       12.7407891415       12.3518756141
  O        -3.1841857266       11.5351960932        3.5015014467
  O        -5.6328511013       12.9530080719        7.9281032535
  O        -0.7244349567       10.1190320407       12.3503701908
  O        -3.9350672484       10.0122628625       14.5620659871
  O        -1.5164671600       11.4219077384        5.7079468868
  O        -3.9374265989       12.8469510959       10.1424956884
  O        -4.1186002786       12.9533526569       14.5620731578
  O        -4.1228449288       10.1182646752        5.7218981279
  O        -1.6650673059       11.5379104606       10.1394881303
  O        -1.6649522472       11.3235401162       14.5620902609
  O        -4.1235169054       12.7421877087        5.7160183631
  O        -4.1207039292        9.9039354793       10.1392021055
  O        -0.9070394844       12.8428224079        3.5087073827
  O         4.0220767799       10.0032358715        7.9259139772
  O         1.5460379358       11.4294988003       12.3508126945
  O         4.1841475265        9.9062958016        3.5059769879
  O         1.7895158145       11.3076268606        7.9299954479
  O        -0.7241826220       12.7402597266       12.3501967554
  O         1.7258875252       11.5366751647        3.5088764473
  O        -0.7408808429       13.0127445839        7.9297010671
  O         4.1837340191       10.1194306483       12.3527135465
  O         0.9731629370       10.0125529023       14.5616890406
  O         3.4368653692       11.4310367858        5.7137548588
  O         0.9753717594       12.8453776744       10.1398542283
  O         0.7889306839       12.9533260659       14.5614711073
  O         0.8136879388       10.0922901108        5.7085184242
  O         3.2495067081       11.5364836067       10.1454812260
  O         3.2423759095       11.3242499051       14.5631051729
  O         0.7992344933       12.7743894999        5.7080373458
  O         0.7872358403        9.9054841089       10.1399995088
  O         4.0008922147       12.8458433338        3.5041417595
  O         8.9048993664       10.0132466348        7.9293714045
  O         6.4550315114       11.4297843134       12.3522016361
  O         9.0925773831        9.9065089365        3.5064196612
  O         6.6403138961       11.3250864956        7.9290697456
  O         4.1846022349       12.7409753415       12.3524224810
  O         6.6385532526       11.5367145838        3.5053558205
  O         4.1916707789       12.9556201640        7.9301878423
  O         9.0915180852       10.1191712538       12.3516594115
  O         5.8815694991       10.0124086076       14.5625671927
  O         8.3335688480       11.4284805639        5.7171585904
  O         5.8834818626       12.8469002338       10.1408089977
  O         5.6980862361       12.9532862591       14.5621640935
  O         5.7022173398       10.1189912810        5.7150509918
  O         8.1517959231       11.5361702842       10.1405078348
  O         8.1519029041       11.3237988340       14.5625701654
  O         5.6983903260       12.7422011353        5.7166322851
  O         5.6989218386        9.9064769558       10.1425244635
