      77
 i =       25, E =     -1335.5577474736
 Fe        18.3401941592       -0.0000036567        0.0002603369
 Fe        15.2926668772        0.0001463870       -0.0000472222
 Fe        12.2216081792        0.0051965933        0.0193549633
 Fe         9.1378840452        0.0003274880        0.0003617345
 Fe         6.1238018072        0.0191097921        0.0026218458
 Fe         3.1098331572        0.0004453028       -0.0005299831
 Fe         0.0251916617        0.0117802440       -0.0189982001
  O        18.3201535392        0.0354190311        2.1001945541
  O        18.3160957253       -0.0347968947       -2.1014678778
  O        19.8612867751       -1.2266222124        0.0238523405
  O        19.8573375798        1.2433943391       -0.0329075552
  O        15.2803667947        0.0350612180        2.1016974402
  O        15.2716977534       -0.0350743741       -2.1011345803
  O        16.8149513409       -1.2419562402        0.0288771957
  O        16.8144963877        1.2415286473       -0.0296345717
  O        12.2703140947        0.0329645667        2.1494024755
  O        12.2307084515       -0.0308446382       -2.1009288375
  O        13.7697114963       -1.2321190752        0.0324570560
  O        13.7709731807        1.2396624539       -0.0248176862
  O         9.2353295009       -0.0287975850        2.1628260099
  O         9.2378294482        0.0293619934       -2.1558947370
  O        10.7312738994       -1.2284848430        0.0260390262
  O        10.7321189942        1.2388092757        0.0270871783
  O         6.1269845063        0.0264226510        2.2238397614
  O         6.1282066435        0.0342298743       -2.2190695249
  O         7.7543668816       -1.2741701539       -0.0277448508
  O         7.7632516603        1.2914817097        0.0301975920
  O         3.0089963922       -0.0294276870        2.1533689732
  O         3.0142649203        0.0291478271       -2.1596071514
  O         4.4939363912       -1.2740829279       -0.0262019100
  O         4.4854226916        1.2913526195        0.0307020333
  O        -0.0212194661        0.0347057191        2.1002803332
  O        -0.0297529714       -0.0296130394       -2.1412733346
  O         1.5145166077       -1.2206133009       -0.0255638149
  O         1.5146781876        1.2443864505       -0.0236643533
  H        18.4114187984       -0.8521325964       -2.6542530044
  H        18.3606062855        0.7727043692       -2.6745158109
  H        18.3427302838       -0.7707353969        2.6763141607
  H        18.4047825608        0.8540332469        2.6527734108
  H        19.8735861035       -2.2149925611        0.0277869015
  H        19.8641275923        2.2317132125       -0.0405697853
  H        15.1591283478       -0.8534177539       -2.6493635346
  H        15.1912396243        0.7714826075       -2.6717308874
  H        15.1759122930       -0.7705002572        2.6698630835
  H        15.1449395168        0.8532740252        2.6451149612
  H        16.8140981735       -2.2303005884        0.0337669963
  H        16.8137695708        2.2298167915       -0.0332999825
  H        11.9620808332       -0.8384799494       -2.6103279006
  H        12.0631637132        0.7788851055       -2.6488837358
  H        12.0841046775       -0.7797900978        2.6881338360
  H        11.9745525919        0.8352147694        2.6539335048
  H        13.7576904065       -2.2204523374        0.0362709983
  H        13.7613906015        2.2279903489       -0.0309343660
  H         8.9722204014       -0.7674461119       -2.6837137530
  H         9.0390435399        0.8552623378       -2.6685180762
  H         9.0437634566       -0.8560201462        2.6761657856
  H         8.9573135435        0.7655403954        2.6877729796
  H        10.7039721028       -2.2159061593        0.0307719779
  H        10.7024284399        2.2260397869        0.0245991072
  H         6.1062367132       -0.7803023199       -2.7836474307
  H         6.1040466694        0.8468132058       -2.7865432089
  H         6.1048402984       -0.7796474570        2.8005726075
  H         6.1067725738        0.8473585707        2.7793009264
  H         7.7329374102       -2.2602694306       -0.0263672203
  H         7.7560032740        2.2777625335        0.0352724485
  H         3.2412036075       -0.7699923240       -2.7007988257
  H         3.1731560636        0.8551405539       -2.6847967749
  H         3.1607416338       -0.8552078176        2.6812906600
  H         3.2432331448        0.7693347080        2.6919904050
  H         4.5151583535       -2.2602206842       -0.0290595657
  H         4.4922999587        2.2776128103        0.0297435893
  H         0.2092254172       -0.8389185487       -2.6630857057
  H         0.1092042626        0.7796205931       -2.6984579814
  H         0.1027856489       -0.7791745243        2.6530917115
  H         0.2124991400        0.8403247450        2.6292745515
  H         1.5401198054       -2.2080942207       -0.0214886404
  H         1.5455325930        2.2315079321       -0.0275126105
