      77
 i =       38, E =     -1335.6172536568
 Fe        18.3380488384        0.0001722245       -0.0000862797
 Fe        15.2680513104        0.0001365328        0.0035646630
 Fe        12.1839089470       -0.0000747229        0.0001813938
 Fe         9.1695849334        0.0148767711        0.0008129917
 Fe         6.1552135325       -0.0000935787       -0.0000502027
 Fe         3.0697983976       -0.0004356802       -0.0012532345
 Fe         0.0006101505       -0.0001763844        0.0001813465
  O        18.3213367496       -0.0318820010        2.0769163032
  O        18.3179806861        0.0315052913       -2.0795359622
  O        19.8607193152       -1.2131099305       -0.0250426701
  O        19.8607354519        1.2129493026        0.0242298014
  O        15.3136908060       -0.0305072553        2.1004460892
  O        15.2871371332        0.0317507919       -2.0951968996
  O        16.8163122634       -1.2094938414       -0.0245615685
  O        16.8165762668        1.2094636912        0.0235071049
  O        12.2774361588        0.0272083570        2.1179291975
  O        12.2778746512       -0.0278997585       -2.1148243787
  O        13.7770513257       -1.2062263874        0.0066001586
  O        13.7784625124        1.2071083158        0.0158904518
  O         9.1696689015        0.0322687298        2.1739730215
  O         9.1703274933        0.0242542401       -2.1723223352
  O        10.8036407638       -1.2588762881        0.0241202528
  O        10.8140598462        1.2668941544       -0.0251938819
  O         6.0605541013        0.0273124818        2.1150376271
  O         6.0611781625       -0.0282130113       -2.1156289553
  O         7.5353835942       -1.2589555477        0.0245089757
  O         7.5250318148        1.2669114215       -0.0247215444
  O         3.0221625027       -0.0293934269        2.0965075312
  O         3.0215917986        0.0289785684       -2.0982422112
  O         4.5608898639       -1.2059099952       -0.0048019845
  O         4.5598466985        1.2053132600       -0.0005007994
  O        -0.0243191249       -0.0314636790        2.0777202628
  O        -0.0245935565        0.0310466227       -2.0796118227
  O         1.5200694512       -1.2089038505       -0.0240545023
  O         1.5201138711        1.2084616661        0.0230510489
  H        18.2484306907       -0.7778975606       -2.6476120664
  H        18.2396855680        0.8465419250       -2.6383369088
  H        18.2347383521       -0.8471587506        2.6342183830
  H        18.2433052855        0.7769672624        2.6446439273
  H        19.8598322441       -2.2011629295       -0.0254753674
  H        19.8598662068        2.2010008778        0.0247660314
  H        15.1180099621       -0.7737426047       -2.6485597676
  H        15.0830649531        0.8473297687       -2.6214658707
  H        15.1026293448       -0.8451914908        2.6257432569
  H        15.1332162494        0.7755422632        2.6498322872
  H        16.8043100065       -2.1974779380       -0.0305864099
  H        16.8046245946        2.1974727506        0.0246666175
  H        12.1019438997       -0.8498993957       -2.6413511119
  H        12.0508996995        0.7737012932       -2.6527758613
  H        12.0593993373       -0.7757083853        2.6577531729
  H        12.0963758730        0.8481158727        2.6442991186
  H        13.7435307134       -2.1930402150        0.0015454026
  H        13.7450485712        2.1938695403        0.0190955307
  H         9.1697224785       -0.7810039099       -2.7503600802
  H         9.1682246360        0.8445695184       -2.7288449818
  H         9.1688345838       -0.7839214836        2.7366329266
  H         9.1704311577        0.8413363439        2.7468622264
  H        10.7755109917       -2.2438267676        0.0273224150
  H        10.7966021984        2.2521883730       -0.0236347974
  H         6.2358771267       -0.8495976667       -2.6434136849
  H         6.2810939049        0.7743288954       -2.6549979424
  H         6.2735889009       -0.7761788763        2.6559058225
  H         6.2420685154        0.8479640741        2.6415495296
  H         7.5638932110       -2.2438702789        0.0259642856
  H         7.5428780451        2.2521885219       -0.0249647624
  H         3.1879937675       -0.7787859113       -2.6495762761
  H         3.2280113743        0.8421062048       -2.6276719460
  H         3.2244821554       -0.8426530390        2.6272774870
  H         3.1886714563        0.7784232638        2.6476786724
  H         4.5944779377       -2.1928150168       -0.0057425237
  H         4.5928850936        2.1921853737        0.0020327579
  H         0.0434587424       -0.7788253386       -2.6475474284
  H         0.0587554823        0.8453107714       -2.6390304253
  H         0.0539150793       -0.8462072836        2.6372075382
  H         0.0401603964        0.7779099135        2.6467635279
  H         1.5308782402       -2.1969296358       -0.0260768672
  H         1.5311200488        2.1964595444        0.0254008391
