     216
 i =        2, E =     -5074.0312928550
 Bi         2.5892879979        1.2733465974       10.2348696081
 Bi         2.5552405839        6.3667329060       10.2348696267
 Bi         2.5211931675       11.4601193493       10.2348696270
 Bi         7.7848878797        1.2733466143       10.2348696269
 Bi         7.7508404936        6.3667329275       10.2348696689
 Bi         7.7167930229       11.4601193308       10.2348696505
 Bi        12.9804879472        1.2733465165       10.2348695942
 Bi        12.9464405114        6.3667328551       10.2348695524
 Bi        12.9123930949       11.4601193141       10.2348695583
 Bi         2.5722642279        3.8200395393        1.4696320008
 Bi         2.5382168540        8.9134260023        1.4696319842
 Bi         2.5041694792       14.0068122740        1.4696320600
 Bi         7.7678641578        3.8200395600        1.4696319921
 Bi         7.7338167555        8.9134260288        1.4696319918
 Bi         7.6997693760       14.0068122801        1.4696320320
 Bi        12.9634641779        3.8200395172        1.4696320479
 Bi        12.9294168134        8.9134259719        1.4696320291
 Bi        12.8953693347       14.0068121956        1.4696321272
 Bi        -0.0085115514        1.2733470190        7.3218837761
 Bi        -0.0425589519        6.3667333280        7.3218838018
 Bi        -0.0766063580       11.4601197348        7.3218838368
 Bi         5.1870883794        1.2733470182        7.3218838316
 Bi         5.1530409763        6.3667333201        7.3218838493
 Bi         5.1189935215       11.4601196807        7.3218839067
 Bi        10.3826880844        1.2733470354        7.3218839026
 Bi        10.3486406700        6.3667333437        7.3218838666
 Bi        10.3145932298       11.4601196613        7.3218839452
 Bi        -0.0255356168        3.8200398257        4.3826190795
 Bi        -0.0595830219        8.9134262547        4.3826190837
 Bi        -0.0936304423       14.0068124921        4.3826190510
 Bi         5.1700642892        3.8200397989        4.3826190340
 Bi         5.1360168874        8.9134262557        4.3826190376
 Bi         5.1019695031       14.0068124716        4.3826190568
 Bi        10.3656639910        3.8200398024        4.3826190533
 Bi        10.3316166329        8.9134262599        4.3826190186
 Bi        10.2975691720       14.0068124953        4.3826190833
  O         3.8907636698        1.9872505196        0.5225867646
  O         3.8567161994        7.0806367929        0.5225867557
  O         3.8226687381       12.1740229451        0.5225867731
  O         9.0863630737        1.9872504273        0.5225868720
  O         9.0523155856        7.0806366925        0.5225868751
  O         9.0182681064       12.1740228134        0.5225868741
  O        14.2819633408        1.9872505791        0.5225867298
  O        14.2479158504        7.0806368233        0.5225867348
  O        14.2138683963       12.1740229613        0.5225867427
  O         3.3052479299        2.5462269033        3.4484471372
  O         3.2712005257        7.6396131109        3.4484470873
  O         3.2371531734       12.7329994283        3.4484470560
  O         8.5008474236        2.5462269948        3.4484471191
  O         8.4668000294        7.6396132003        3.4484470717
  O         8.4327526373       12.7329995116        3.4484470561
  O        13.6964479296        2.5462268928        3.4484470710
  O        13.6624004888        7.6396130955        3.4484470396
  O        13.6283531173       12.7329994099        3.4484470089
  O         1.2759407127        4.5339469140        6.3748352101
  O         1.2418934041        9.6273335676        6.3748351976
  O         1.2078459697       14.7207199190        6.3748352020
  O         6.4715409746        4.5339470623        6.3748350507
  O         6.4374936732        9.6273337264        6.3748350422
  O         6.4034462461       14.7207200753        6.3748350501
  O        11.6671409670        4.5339470072        6.3748350949
  O        11.6330936967        9.6273336688        6.3748350875
  O        11.5990462138       14.7207200222        6.3748350935
  O         0.7244707704       -0.0004648853        9.3006960287
  O         0.6904233851        5.0929213592        9.3006959738
  O         0.6563759298       10.1863079098        9.3006960680
  O         5.9200712001       -0.0004650091        9.3006960255
  O         5.8860238080        5.0929212435        9.3006959786
  O         5.8519763062       10.1863077632        9.3006960638
  O        11.1156708911       -0.0004649863        9.3006960652
  O        11.0816235167        5.0929212529        9.3006960178
  O        11.0475760730       10.1863077972        9.3006961029
  O         1.7711856850       15.2806253480        3.4484469934
  O         1.8392805706        5.0938525008        3.4484470249
  O         1.8052330789       10.1872390632        3.4484469626
  O         6.9667861410       15.2806252186        3.4484470228
  O         7.0348809836        5.0938523670        3.4484470447
  O         7.0008335028       10.1872389302        3.4484469805
  O        12.1623856117       15.2806253004        3.4484470406
  O        12.2304804518        5.0938524390        3.4484470538
  O        12.1964330026       10.1872390162        3.4484470021
  O         0.7074467200        2.5462281310        2.4038046593
  O         0.6733993104        7.6396143041        2.4038046932
  O         0.6393519449       12.7330006732        2.4038047428
  O         5.9030471300        2.5462279940        2.4038046751
  O         5.8689997403        7.6396141722        2.4038047141
  O         5.8349523578       12.7330005297        2.4038047566
  O        11.0986469119        2.5462280207        2.4038046495
  O        11.0645995217        7.6396141966        2.4038046832
  O        11.0305520910       12.7330005501        2.4038047221
  O         4.4541050655        2.5471584720        9.3006958971
  O         4.4200576574        7.6405447630        9.3006959337
  O         4.3860103064       12.7339309808        9.3006959910
  O         9.6497047707        2.5471584907        9.3006958505
  O         9.6156574071        7.6405447822        9.3006958961
  O         9.5816099642       12.7339309847        9.3006959407
  O        14.8453052296        2.5471583659        9.3006958854
  O        14.8112578454        7.6405446574        9.3006959186
  O        14.7772104546       12.7339308885        9.3006959652
  O         1.2707886104        3.1061360273       11.1819140320
  O         1.2367410717        8.1995221320       11.1819140272
  O         1.2026936740       13.2929085254       11.1819140381
  O         6.4663888869        3.1061362085       11.1819138782
  O         6.4323413534        8.1995223122       11.1819138692
  O         6.3982939734       13.2929087218       11.1819138860
  O        11.6619882454        3.1061360394       11.1819139990
  O        11.6279407282        8.1995221712       11.1819139959
  O        11.5938933068       13.2929085715       11.1819139914
  O         1.8563044565        2.5471596320        8.2560535439
  O         1.8222570635        7.6405459279        8.2560535017
  O         1.7882096877       12.7339321891        8.2560534589
  O         7.0519048939        2.5471595087        8.2560535328
  O         7.0178575167        7.6405458065        8.2560534882
  O         6.9838101097       12.7339320476        8.2560534412
  O        12.2475044208        2.5471595888        8.2560535013
  O        12.2134570389        7.6405458852        8.2560534532
  O        12.1794095806       12.7339321316        8.2560534194
  O         3.8856114595        0.5594391574        5.3296654360
  O         3.8515640048        5.6528254174        5.3296654338
  O         3.8175166820       10.7462120901        5.3296654330
  O         9.0812114558        0.5594391423        5.3296654806
  O         9.0471639786        5.6528253821        5.3296654681
  O         9.0131166720       10.7462120382        5.3296654633
  O        14.2768117269        0.5594393086        5.3296653377
  O        14.2427642409        5.6528255646        5.3296653208
  O        14.2087169547       10.7462122385        5.3296653256
  O         4.3689865957       15.2806240897        2.4038046085
  O         4.4370814570        5.0938512375        2.4038045575
  O         4.4030339767       10.1872377696        2.4038046360
  O         9.5645863080       15.2806241076        2.4038046504
  O         9.6326811465        5.0938512491        2.4038046163
  O         9.5986336971       10.1872377731        2.4038046800
  O        14.7601867363       15.2806239988        2.4038046239
  O        14.8282816058        5.0938511546        2.4038045909
  O        14.7942341670       10.1872376864        2.4038046496
  O         3.8737399502        4.5339431352       11.1819139971
  O         3.8396926097        9.6273297919       11.1819139990
  O         3.8056452131       14.7207161138       11.1819139760
  O         9.0693393020        4.5339430123       11.1819139000
  O         9.0352919813        9.6273296698       11.1819138886
  O         9.0012445581       14.7207159880       11.1819138766
  O        14.2649396271        4.5339431851       11.1819140214
  O        14.2308922964        9.6273298250       11.1819140112
  O        14.1968448763       14.7207161359       11.1819140166
  O         3.3222718575       -0.0004659918        8.2560535620
  O         3.2882244745        5.0929202763        8.2560536166
  O         3.2541769766       10.1863068415        8.2560535397
  O         8.5178713092       -0.0004658955        8.2560535576
  O         8.4838239114        5.0929203813        8.2560536094
  O         8.4497764262       10.1863069296        8.2560535476
  O        13.7134717629       -0.0004660326        8.2560536015
  O        13.6794243896        5.0929202563        8.2560536618
  O        13.6453769453       10.1863068319        8.2560535896
  O         1.2929640892        1.9872542039        5.3296652271
  O         1.2589166215        7.0806404415        5.3296652226
  O         1.2248691783       12.1740266478        5.3296652320
  O         6.4885643952        1.9872543885        5.3296653723
  O         6.4545169356        7.0806406311        5.3296653734
  O         6.4204694750       12.1740268035        5.3296653971
  O        11.6841644110        1.9872543369        5.3296653340
  O        11.6501169104        7.0806405523        5.3296653357
  O        11.6160694641       12.1740267556        5.3296653620
  O         3.8685879458        3.1061329145        6.3748351413
  O         3.8345404412        8.1995190468        6.3748351705
  O         3.8004930298       13.2929053484        6.3748351392
  O         9.0641879372        3.1061328893        6.3748351164
  O         9.0301404441        8.1995190242        6.3748351425
  O         8.9960930097       13.2929053071        6.3748351147
  O        14.2597882546        3.1061330956        6.3748352316
  O        14.2257407621        8.1995192294        6.3748352682
  O        14.1916932948       13.2929054955        6.3748352377
  O         1.2878126706        0.5594424574        0.5225867250
  O         1.2537651983        5.6528286615        0.5225867159
  O         1.2197178867       10.7462154124        0.5225867168
  O         6.4834129730        0.5594426506        0.5225868755
  O         6.4493655003        5.6528288503        0.5225868739
  O         6.4153181593       10.7462155895        0.5225868827
  O        11.6790123234        0.5594424859        0.5225867520
  O        11.6449648175        5.6528286830        0.5225867462
  O        11.6109175188       10.7462154469        0.5225867480
  V        -0.0085118403        1.2733465332        1.4486429613
  V        -0.0425592918        6.3667327530        1.4486429623
  V        -0.0766066866       11.4601191998        1.4486429857
  V         5.1870881722        1.2733465007        1.4486429755
  V         5.1530407211        6.3667327159        1.4486429847
  V         5.1189933062       11.4601191530        1.4486430253
  V        10.3826877829        1.2733465544        1.4486429755
  V        10.3486403177        6.3667327661        1.4486429952
  V        10.3145929049       11.4601191881        1.4486430012
  V         2.5722644222        3.8200400945        7.3008903288
  V         2.5382170038        8.9134264848        7.3008903495
  V         2.5041695795       14.0068127844        7.3008902945
  V         7.7678644368        3.8200400695        7.3008902808
  V         7.7338170242        8.9134264557        7.3008902959
  V         7.6997695940       14.0068127412        7.3008902690
  V        12.9634644750        3.8200400398        7.3008903106
  V        12.9294170940        8.9134264462        7.3008903460
  V        12.8953696104       14.0068127126        7.3008902893
  V        -0.0255355739        3.8200398155       10.2558578449
  V        -0.0595829854        8.9134262128       10.2558578249
  V        -0.0936304139       14.0068125188       10.2558578452
  V         5.1700644311        3.8200397870       10.2558578269
  V         5.1360169952        8.9134261579       10.2558578280
  V         5.1019695910       14.0068124801       10.2558578327
  V        10.3656640233        3.8200398209       10.2558578611
  V        10.3316166125        8.9134262169       10.2558578512
  V        10.2975691508       14.0068125174       10.2558578361
  V         2.5892878623        1.2733465870        4.4036105324
  V         2.5552404110        6.3667328208        4.4036105101
  V         2.5211930029       11.4601192448        4.4036105087
  V         7.7848878996        1.2733465654        4.4036105677
  V         7.7508404364        6.3667327991        4.4036105333
  V         7.7167930355       11.4601192053        4.4036105536
  V        12.9804879268        1.2733465518        4.4036105011
  V        12.9464404449        6.3667327629        4.4036104754
  V        12.9123930541       11.4601191870        4.4036105133
