     216
 i =       75, E =     -5073.7478672329
 Bi         2.5803190443        1.2829823678       10.2399673686
 Bi         2.5681553855        6.3754876865       10.2270660156
 Bi         2.5199523750       11.4703227810       10.2335411123
 Bi         7.7696075749        1.2997984880       10.1859995828
 Bi         7.7661202380        6.3402822175       10.1859986741
 Bi         7.7167932042       11.4601195157       10.2366851076
 Bi        12.9675724306        1.2645928442       10.2270646907
 Bi        12.9554090186        6.3570989460       10.2399676835
 Bi        12.9136331108       11.4499175622       10.2335408450
 Bi         2.5858436591        3.8247558669        1.4807001173
 Bi         2.5404016180        8.9207285367        1.4634585171
 Bi         2.5040810037       14.0195724273        1.4767646625
 Bi         7.7678636824        3.8200406342        1.4668653531
 Bi         7.7302105911        8.8936151796        1.4585123000
 Bi         7.7033756722       14.0266236666        1.4585119931
 Bi        12.9498847632        3.8153242896        1.4807000105
 Bi        12.9295044754        8.9006682714        1.4767648483
 Bi        12.8931838281       13.9995115644        1.4634588266
 Bi        -0.0084594135        1.2766727992        7.3229068300
 Bi        -0.0426143400        6.3634161785        7.3229081831
 Bi        -0.0766075352       11.4601230640        7.3207435704
 Bi         5.2029609447        1.3088934214        7.3478792016
 Bi         5.1827288529        6.3600182724        7.2858992005
 Bi         5.1146406900       11.4702567958        7.3210284476
 Bi        10.3529972653        1.2800706982        7.2858998926
 Bi        10.3327679674        6.3311888523        7.3478793096
 Bi        10.3189453425       11.4499841054        7.3210281025
 Bi        -0.0255362711        3.8200454993        4.3806176239
 Bi        -0.0570367838        8.9071721783        4.3829693427
 Bi        -0.0961790606       14.0130735664        4.3829694678
 Bi         5.1917687431        3.8375020024        4.4227018005
 Bi         5.1344041993        8.9310013402        4.3750757942
 Bi         5.1037625758       14.0325580044        4.3894184323
 Bi        10.3439590222        3.8025831275        4.4227005167
 Bi        10.3298230497        8.8876822441        4.3894182588
 Bi        10.2991800512       13.9892425223        4.3750774546
  O         3.8915647273        2.0204188901        0.5217223176
  O         3.8592404431        7.1207549425        0.5172799531
  O         3.8297539930       12.2158656456        0.5188349375
  O         9.0804388233        1.9827136021        0.5238335300
  O         9.0581849399        7.0758292272        0.5205818849
  O         9.0144491634       12.1732552359        0.5228213130
  O        14.2799529991        1.9842700462        0.5207783890
  O        14.2519232962        7.0776356494        0.5238297356
  O        14.2141682006       12.1692627585        0.5209360615
  O         3.2988997967        2.5441041437        3.4434925272
  O         3.2688665683        7.6414698032        3.4470873074
  O         3.2409580071       12.7401436965        3.4489029436
  O         8.5007691481        2.5355787247        3.4523430827
  O         8.4687778614        7.5809690259        3.4594970376
  O         8.4320479254       12.7293035645        3.4511923725
  O        13.6965761977        2.5442640305        3.4496827473
  O        13.6707182659        7.6338528448        3.4517678866
  O        13.6281224278       12.7243385113        3.4544162109
  O         1.2816195409        4.5569172314        6.3736752679
  O         1.2423514848        9.6346146978        6.3741405436
  O         1.2115229639       14.7568983437        6.3710987895
  O         6.5361996765        4.6960060814        6.2527894432
  O         6.4363799116        9.6715774254        6.3752457419
  O         6.4306089298       14.7585458628        6.3681090764
  O        11.6603597422        4.5227927764        6.3776566154
  O        11.6294815232        9.6148139902        6.3723283331
  O        11.6028308784       14.7090596882        6.3668431091
  O         0.7164745128       -0.0026172210        9.2995147098
  O         0.6894098617        5.0918170952        9.3024215889
  O         0.6563400833       10.1885155555        9.3009626691
  O         5.9161235512       -0.0006679888        9.3008818414
  O         5.9158679955        5.0948760166        9.2679913016
  O         5.8530957486       10.1879277095        9.2991509789
  O        11.1167071918       -0.0100050978        9.3121278931
  O        11.1386173175        5.0862174049        9.3128639265
  O        11.0488820233       10.1781091656        9.3096544927
  O         1.7628646815       15.2863902670        3.4517702629
  O         1.8391527463        5.0958192485        3.4496839872
  O         1.8054621740       10.1959037201        3.4544185588
  O         6.9648076807       15.3392696481        3.4594975046
  O         7.0349576970        5.1045049884        3.4523440700
  O         7.0015381038       10.1909351702        3.4511924395
  O        12.1647199932       15.2787679943        3.4470882289
  O        12.2368288534        5.0959755473        3.4434929426
  O        12.1926293122       10.1800953267        3.4489036358
  O         0.7092177329        2.5499008484        2.4011817283
  O         0.6766904890        7.6384882396        2.4027089885
  O         0.6385359875       12.7336747290        2.4042070126
  O         5.9029403293        2.5524047609        2.3988686353
  O         5.8647012933        7.6431511087        2.4018817381
  O         5.8365280305       12.7365386435        2.4046300997
  O        11.0998161915        2.5304344775        2.3972512993
  O        11.0664211605        7.6333051755        2.4007730149
  O        11.0339518492       12.7180711432        2.3923993813
  O         4.3971114964        2.5538613587        9.3128644640
  O         4.4190210617        7.6500851743        9.3121294375
  O         4.3847042925       12.7421296353        9.3096553637
  O         9.6198615258        2.5452013843        9.2680051697
  O         9.6196044068        7.6407472671        9.3008824728
  O         9.5804899904       12.7323113557        9.2991508217
  O        14.8463177404        2.5482639485        9.3024226537
  O        14.8192534067        7.6426989739        9.2995165450
  O        14.7772458668       12.7317241910        9.3009635952
  O         1.2748216642        3.1124834026       11.1837603231
  O         1.2416842812        8.2023623991       11.1818520308
  O         1.2023817660       13.2989971479       11.1828881642
  O         6.4623803599        3.1122937337       11.1786929031
  O         6.4312488924        8.2061520325       11.1845503574
  O         6.3994593307       13.2958089238       11.1837847126
  O        11.6035515863        3.0612631044       11.1795520319
  O        11.6222969508        8.1618710477       11.1859340736
  O        11.5905832234       13.2512871113       11.1854930937
  O         1.8454143351        2.5512528713        8.2500769769
  O         1.8261904536        7.6415588745        8.2548359632
  O         1.7876760693       12.7405921386        8.2481023740
  O         6.9309715052        2.6064346914        8.3180784241
  O         7.0190050980        7.6435925438        8.2492335662
  O         6.9795928848       12.7420638036        8.2518452168
  O        12.2448171318        2.5519975303        8.2583530303
  O        12.2220133032        7.6441940557        8.2642287969
  O        12.1790889196       12.7306244730        8.2565642641
  O         3.8827975888        0.5666506472        5.3243401428
  O         3.8521882585        5.6612914209        5.3297179707
  O         3.8116461237       10.7605721879        5.3345564542
  O         9.0846934951        0.4616482613        5.3231214716
  O         9.0538830157        5.6102198939        5.3489862902
  O         9.0054564799       10.7134501826        5.3319502821
  O        14.2765232443        0.5550250672        5.3287624417
  O        14.2385296908        5.6195415391        5.3342988548
  O        14.2052319235       10.7137950451        5.3326319367
  O         4.3671649269       15.2869331274        2.4007727687
  O         4.4359126925        5.1096442248        2.3972507367
  O         4.3996334006       10.2021684702        2.3923974014
  O         9.5688842666       15.2770880421        2.4018812944
  O         9.6327880846        5.0876744010        2.3988677728
  O         9.5970578650       10.1836999795        2.4046299987
  O        14.7568943502       15.2817516827        2.4027079358
  O        14.8265100913        5.0901805764        2.4011808066
  O        14.7950497424       10.1865650823        2.4042056768
  O         3.9321782835        4.5788173143       11.1795501433
  O         3.8430020596        9.6689525757       11.1854936044
  O         3.8112878896       14.7583688833       11.1859338258
  O         9.0733475543        4.5277884964       11.1786948446
  O         9.0341265506        9.6244301365       11.1837846208
  O         9.0023369250       14.7140875304       11.1845501256
  O        14.2609068937        4.5275973049       11.1837605117
  O        14.2312044390        9.6212429136       11.1828883907
  O        14.1919022665       14.7178769368       11.1818516412
  O         3.3137149680       -0.0041143481        8.2642288493
  O         3.2909137299        5.0880811138        8.2583546987
  O         3.2544976089       10.1896140617        8.2565649088
  O         8.5167238307       -0.0035115203        8.2492344322
  O         8.6047572987        5.0336473670        8.3180805959
  O         8.4539930693       10.1781746351        8.2518453391
  O        13.7095378878       -0.0014766582        8.2548377982
  O        13.6903107219        5.0888341143        8.2500825765
  O        13.6459100284       10.1796493539        8.2481037566
  O         1.2972001149        2.0205543901        5.3343013897
  O         1.2592063138        7.0850754011        5.3287614839
  O         1.2283551636       12.2064589506        5.3326325395
  O         6.4818468514        2.0298641293        5.3489892604
  O         6.4510356107        7.1784441190        5.3231230608
  O         6.4281283196       12.2067893302        5.3319497668
  O        11.6835405659        1.9787913993        5.3297183431
  O        11.6529292801        7.0734311474        5.3243400610
  O        11.6219373885       12.1596692377        5.3345554359
  O         3.8753674890        3.1172899938        6.3776562883
  O         3.8307525300        8.2111822859        6.3668417950
  O         3.8041041854       13.3054267548        6.3723283899
  O         8.9995313250        2.9440879985        6.2527952529
  O         9.0029807590        8.1616949435        6.3681099209
  O         8.9972055862       13.2486639075        6.3752452042
  O        14.2541178862        3.0832062242        6.3736775518
  O        14.2220613681        8.1633510756        6.3710981395
  O        14.1912351390       13.2856415463        6.3741406132
  O         1.2838054494        0.5624457891        0.5238296585
  O         1.2557757465        5.6558105874        0.5207782288
  O         1.2194181308       10.7509768294        0.5209359110
  O         6.4775429237        0.5642510483        0.5205820336
  O         6.4552886312        5.6573673389        0.5238332431
  O         6.4191367684       10.7469841861        0.5228210257
  O        11.6764871228        0.5193251958        0.5172796946
  O        11.6441630253        5.6196613128        0.5217221444
  O        11.6038309104       10.7043745826        0.5188352585
  V        -0.0119916683        1.2765282678        1.4492489612
  V        -0.0390793562        6.3635533457        1.4492484744
  V        -0.0766066491       11.4601202228        1.4500525401
  V         5.1856463280        1.2851900687        1.4461387194
  V         5.1526694892        6.3736205289        1.4356333568
  V         5.1199854503       11.4741209906        1.4404468823
  V        10.3830583614        1.2664597485        1.4356327748
  V        10.3500816700        6.3548901415        1.4461383250
  V        10.3136002043       11.4461190301        1.4404479200
  V         2.5691131591        3.8256929831        7.3004799841
  V         2.5409062316        8.9164759784        7.2992869093
  V         2.5021125025       14.0202807135        7.2952372136
  V         7.7678617374        3.8200448087        7.2672530237
  V         7.7272363205        8.9187770374        7.2877011961
  V         7.7063500568       14.0014630108        7.2877029039
  V        12.9666121158        3.8143958927        7.3004853448
  V        12.9314717959        8.8999617164        7.2952396451
  V        12.8926768914       14.0037675893        7.2992890090
  V        -0.0255355626        3.8200407524       10.2583062975
  V        -0.0569229888        8.9134290865       10.2558546259
  V        -0.0962901753       14.0068117584       10.2558537716
  V         5.1838324634        3.8246872286       10.2260327404
  V         5.1345246749        8.9217996667       10.2644724072
  V         5.0976689029       14.0158398216       10.2653960082
  V        10.3518968908        3.8153950128       10.2260375933
  V        10.3359167845        8.9043996527       10.2653956118
  V        10.2990610644       13.9984403220       10.2644712735
  V         2.5854618326        1.2829511724        4.4058290639
  V         2.5549793807        6.3712551575        4.4024814168
  V         2.5183153270       11.4730448496        4.4066343095
  V         7.7999104301        1.2911688005        4.4520106917
  V         7.7358151884        6.3489146465        4.4520133118
  V         7.7167927270       11.4601197727        4.4119489741
  V        12.9807463646        1.2688291873        4.4024781858
  V        12.9502640395        6.3571333042        4.4058263642
  V        12.9152684464       11.4471986459        4.4066322314
